/*---------------------------------------------------------------------------*\
  =========                 |
  \\      /  F ield         | OpenFOAM: The Open Source CFD Toolbox
   \\    /   O peration     | Website:  https://openfoam.org
    \\  /    A nd           | Version:  7
     \\/     M anipulation  |
\*---------------------------------------------------------------------------*/
Build  : 7-1ff648926f77
Exec   : surfaceFeatureExtract
Date   : Jun 10 2021
Time   : 03:25:38
Host   : "9259b78b106d"
PID    : 174
I/O    : uncollated
Case   : /home/openfoam/BackStep
nProcs : 1
sigFpe : Enabling floating point exception trapping (FOAM_SIGFPE).
fileModificationChecking : Monitoring run-time modified files using timeStampMaster (fileModificationSkew 10)
allowSystemOperations : Allowing user-supplied system call operations

// * * * * * * * * * * * * * * * * * * * * * * * * * * * * * * * * * * * * * //
Create time

Reading surfaceFeatureExtractDict

Surface            : "face1.stl"


Feature line extraction is only valid on closed manifold surfaces.
Statistics:
Triangles    : 4
Vertices     : 6
Bounding Box : (0 0 0) (1 0 0.3)


Constructing feature set from included angle 165
Selecting edges purely based on geometric tests: no
Removing all non-manifold edges (edges with > 2 connected faces) unless they cross multiple regions

Initial feature set:
    feature points : 6
    feature edges  : 6
    of which
        region edges   : 6
        external edges : 0
        internal edges : 0


Final feature set:
    points : 6
    of which
        convex             : 0
        concave            : 0
        mixed              : 6
        non-feature        : 0
    edges  : 6
    of which
        external edges     : 0
        internal edges     : 0
        flat edges         : 0
        open edges         : 6
        multiply connected : 0

Writing extendedFeatureEdgeMesh to "/home/openfoam/BackStep/constant/extendedFeatureEdgeMesh/face1.extendedFeatureEdgeMesh"

Writing extendedEdgeMesh components to "/home/openfoam/BackStep/constant/extendedFeatureEdgeMesh/face1"
Writing convex feature points to "/home/openfoam/BackStep/constant/extendedFeatureEdgeMesh/face1_convexFeaturePts.obj"
Writing concave feature points to "/home/openfoam/BackStep/constant/extendedFeatureEdgeMesh/face1_concaveFeaturePts.obj"
Writing mixed feature points to "/home/openfoam/BackStep/constant/extendedFeatureEdgeMesh/face1_mixedFeaturePts.obj"
Writing mixed feature point structure to "/home/openfoam/BackStep/constant/extendedFeatureEdgeMesh/face1_mixedFeaturePtsStructure.obj"
Writing external edges to "/home/openfoam/BackStep/constant/extendedFeatureEdgeMesh/face1_externalEdges.obj"
Writing internal edges to "/home/openfoam/BackStep/constant/extendedFeatureEdgeMesh/face1_internalEdges.obj"
Writing flat edges to "/home/openfoam/BackStep/constant/extendedFeatureEdgeMesh/face1_flatEdges.obj"
Writing open edges to "/home/openfoam/BackStep/constant/extendedFeatureEdgeMesh/face1_openEdges.obj"
Writing multiple edges to "/home/openfoam/BackStep/constant/extendedFeatureEdgeMesh/face1_multipleEdges.obj"
Writing region edges to "/home/openfoam/BackStep/constant/extendedFeatureEdgeMesh/face1_regionEdges.obj"
Writing edge directions to "/home/openfoam/BackStep/constant/extendedFeatureEdgeMesh/face1_edgeDirections.obj"

Writing featureEdgeMesh to "/home/openfoam/BackStep/constant/triSurface/face1.eMesh"

Surface            : "face2.stl"


Feature line extraction is only valid on closed manifold surfaces.
Statistics:
Triangles    : 2
Vertices     : 4
Bounding Box : (0 0 0.3) (1 0.3 0.3)


Constructing feature set from included angle 165
Selecting edges purely based on geometric tests: no
Removing all non-manifold edges (edges with > 2 connected faces) unless they cross multiple regions

Initial feature set:
    feature points : 4
    feature edges  : 4
    of which
        region edges   : 4
        external edges : 0
        internal edges : 0


Final feature set:
    points : 4
    of which
        convex             : 0
        concave            : 0
        mixed              : 4
        non-feature        : 0
    edges  : 4
    of which
        external edges     : 0
        internal edges     : 0
        flat edges         : 0
        open edges         : 4
        multiply connected : 0

Writing extendedFeatureEdgeMesh to "/home/openfoam/BackStep/constant/extendedFeatureEdgeMesh/face2.extendedFeatureEdgeMesh"

Writing extendedEdgeMesh components to "/home/openfoam/BackStep/constant/extendedFeatureEdgeMesh/face2"
Writing convex feature points to "/home/openfoam/BackStep/constant/extendedFeatureEdgeMesh/face2_convexFeaturePts.obj"
Writing concave feature points to "/home/openfoam/BackStep/constant/extendedFeatureEdgeMesh/face2_concaveFeaturePts.obj"
Writing mixed feature points to "/home/openfoam/BackStep/constant/extendedFeatureEdgeMesh/face2_mixedFeaturePts.obj"
Writing mixed feature point structure to "/home/openfoam/BackStep/constant/extendedFeatureEdgeMesh/face2_mixedFeaturePtsStructure.obj"
Writing external edges to "/home/openfoam/BackStep/constant/extendedFeatureEdgeMesh/face2_externalEdges.obj"
Writing internal edges to "/home/openfoam/BackStep/constant/extendedFeatureEdgeMesh/face2_internalEdges.obj"
Writing flat edges to "/home/openfoam/BackStep/constant/extendedFeatureEdgeMesh/face2_flatEdges.obj"
Writing open edges to "/home/openfoam/BackStep/constant/extendedFeatureEdgeMesh/face2_openEdges.obj"
Writing multiple edges to "/home/openfoam/BackStep/constant/extendedFeatureEdgeMesh/face2_multipleEdges.obj"
Writing region edges to "/home/openfoam/BackStep/constant/extendedFeatureEdgeMesh/face2_regionEdges.obj"
Writing edge directions to "/home/openfoam/BackStep/constant/extendedFeatureEdgeMesh/face2_edgeDirections.obj"

Writing featureEdgeMesh to "/home/openfoam/BackStep/constant/triSurface/face2.eMesh"

Surface            : "face3.stl"


Feature line extraction is only valid on closed manifold surfaces.
Statistics:
Triangles    : 4
Vertices     : 6
Bounding Box : (0 0.3 0) (1 0.3 0.3)


Constructing feature set from included angle 165
Selecting edges purely based on geometric tests: no
Removing all non-manifold edges (edges with > 2 connected faces) unless they cross multiple regions

Initial feature set:
    feature points : 6
    feature edges  : 6
    of which
        region edges   : 6
        external edges : 0
        internal edges : 0


Final feature set:
    points : 6
    of which
        convex             : 0
        concave            : 0
        mixed              : 6
        non-feature        : 0
    edges  : 6
    of which
        external edges     : 0
        internal edges     : 0
        flat edges         : 0
        open edges         : 6
        multiply connected : 0

Writing extendedFeatureEdgeMesh to "/home/openfoam/BackStep/constant/extendedFeatureEdgeMesh/face3.extendedFeatureEdgeMesh"

Writing extendedEdgeMesh components to "/home/openfoam/BackStep/constant/extendedFeatureEdgeMesh/face3"
Writing convex feature points to "/home/openfoam/BackStep/constant/extendedFeatureEdgeMesh/face3_convexFeaturePts.obj"
Writing concave feature points to "/home/openfoam/BackStep/constant/extendedFeatureEdgeMesh/face3_concaveFeaturePts.obj"
Writing mixed feature points to "/home/openfoam/BackStep/constant/extendedFeatureEdgeMesh/face3_mixedFeaturePts.obj"
Writing mixed feature point structure to "/home/openfoam/BackStep/constant/extendedFeatureEdgeMesh/face3_mixedFeaturePtsStructure.obj"
Writing external edges to "/home/openfoam/BackStep/constant/extendedFeatureEdgeMesh/face3_externalEdges.obj"
Writing internal edges to "/home/openfoam/BackStep/constant/extendedFeatureEdgeMesh/face3_internalEdges.obj"
Writing flat edges to "/home/openfoam/BackStep/constant/extendedFeatureEdgeMesh/face3_flatEdges.obj"
Writing open edges to "/home/openfoam/BackStep/constant/extendedFeatureEdgeMesh/face3_openEdges.obj"
Writing multiple edges to "/home/openfoam/BackStep/constant/extendedFeatureEdgeMesh/face3_multipleEdges.obj"
Writing region edges to "/home/openfoam/BackStep/constant/extendedFeatureEdgeMesh/face3_regionEdges.obj"
Writing edge directions to "/home/openfoam/BackStep/constant/extendedFeatureEdgeMesh/face3_edgeDirections.obj"

Writing featureEdgeMesh to "/home/openfoam/BackStep/constant/triSurface/face3.eMesh"

Surface            : "inlet.stl"


Feature line extraction is only valid on closed manifold surfaces.
Statistics:
Triangles    : 2
Vertices     : 4
Bounding Box : (0 0 0.1) (0 0.3 0.3)


Constructing feature set from included angle 165
Selecting edges purely based on geometric tests: no
Removing all non-manifold edges (edges with > 2 connected faces) unless they cross multiple regions

Initial feature set:
    feature points : 4
    feature edges  : 4
    of which
        region edges   : 4
        external edges : 0
        internal edges : 0


Final feature set:
    points : 4
    of which
        convex             : 0
        concave            : 0
        mixed              : 4
        non-feature        : 0
    edges  : 4
    of which
        external edges     : 0
        internal edges     : 0
        flat edges         : 0
        open edges         : 4
        multiply connected : 0

Writing extendedFeatureEdgeMesh to "/home/openfoam/BackStep/constant/extendedFeatureEdgeMesh/inlet.extendedFeatureEdgeMesh"

Writing extendedEdgeMesh components to "/home/openfoam/BackStep/constant/extendedFeatureEdgeMesh/inlet"
Writing convex feature points to "/home/openfoam/BackStep/constant/extendedFeatureEdgeMesh/inlet_convexFeaturePts.obj"
Writing concave feature points to "/home/openfoam/BackStep/constant/extendedFeatureEdgeMesh/inlet_concaveFeaturePts.obj"
Writing mixed feature points to "/home/openfoam/BackStep/constant/extendedFeatureEdgeMesh/inlet_mixedFeaturePts.obj"
Writing mixed feature point structure to "/home/openfoam/BackStep/constant/extendedFeatureEdgeMesh/inlet_mixedFeaturePtsStructure.obj"
Writing external edges to "/home/openfoam/BackStep/constant/extendedFeatureEdgeMesh/inlet_externalEdges.obj"
Writing internal edges to "/home/openfoam/BackStep/constant/extendedFeatureEdgeMesh/inlet_internalEdges.obj"
Writing flat edges to "/home/openfoam/BackStep/constant/extendedFeatureEdgeMesh/inlet_flatEdges.obj"
Writing open edges to "/home/openfoam/BackStep/constant/extendedFeatureEdgeMesh/inlet_openEdges.obj"
Writing multiple edges to "/home/openfoam/BackStep/constant/extendedFeatureEdgeMesh/inlet_multipleEdges.obj"
Writing region edges to "/home/openfoam/BackStep/constant/extendedFeatureEdgeMesh/inlet_regionEdges.obj"
Writing edge directions to "/home/openfoam/BackStep/constant/extendedFeatureEdgeMesh/inlet_edgeDirections.obj"

Writing featureEdgeMesh to "/home/openfoam/BackStep/constant/triSurface/inlet.eMesh"

Surface            : "outlet.stl"


Feature line extraction is only valid on closed manifold surfaces.
Statistics:
Triangles    : 2
Vertices     : 4
Bounding Box : (1 0 0) (1 0.3 0.3)


Constructing feature set from included angle 165
Selecting edges purely based on geometric tests: no
Removing all non-manifold edges (edges with > 2 connected faces) unless they cross multiple regions

Initial feature set:
    feature points : 4
    feature edges  : 4
    of which
        region edges   : 4
        external edges : 0
        internal edges : 0


Final feature set:
    points : 4
    of which
        convex             : 0
        concave            : 0
        mixed              : 4
        non-feature        : 0
    edges  : 4
    of which
        external edges     : 0
        internal edges     : 0
        flat edges         : 0
        open edges         : 4
        multiply connected : 0

Writing extendedFeatureEdgeMesh to "/home/openfoam/BackStep/constant/extendedFeatureEdgeMesh/outlet.extendedFeatureEdgeMesh"

Writing extendedEdgeMesh components to "/home/openfoam/BackStep/constant/extendedFeatureEdgeMesh/outlet"
Writing convex feature points to "/home/openfoam/BackStep/constant/extendedFeatureEdgeMesh/outlet_convexFeaturePts.obj"
Writing concave feature points to "/home/openfoam/BackStep/constant/extendedFeatureEdgeMesh/outlet_concaveFeaturePts.obj"
Writing mixed feature points to "/home/openfoam/BackStep/constant/extendedFeatureEdgeMesh/outlet_mixedFeaturePts.obj"
Writing mixed feature point structure to "/home/openfoam/BackStep/constant/extendedFeatureEdgeMesh/outlet_mixedFeaturePtsStructure.obj"
Writing external edges to "/home/openfoam/BackStep/constant/extendedFeatureEdgeMesh/outlet_externalEdges.obj"
Writing internal edges to "/home/openfoam/BackStep/constant/extendedFeatureEdgeMesh/outlet_internalEdges.obj"
Writing flat edges to "/home/openfoam/BackStep/constant/extendedFeatureEdgeMesh/outlet_flatEdges.obj"
Writing open edges to "/home/openfoam/BackStep/constant/extendedFeatureEdgeMesh/outlet_openEdges.obj"
Writing multiple edges to "/home/openfoam/BackStep/constant/extendedFeatureEdgeMesh/outlet_multipleEdges.obj"
Writing region edges to "/home/openfoam/BackStep/constant/extendedFeatureEdgeMesh/outlet_regionEdges.obj"
Writing edge directions to "/home/openfoam/BackStep/constant/extendedFeatureEdgeMesh/outlet_edgeDirections.obj"

Writing featureEdgeMesh to "/home/openfoam/BackStep/constant/triSurface/outlet.eMesh"

Surface            : "step1.stl"


Feature line extraction is only valid on closed manifold surfaces.
Statistics:
Triangles    : 2
Vertices     : 4
Bounding Box : (0 0 0.1) (0.1 0.3 0.1)


Constructing feature set from included angle 165
Selecting edges purely based on geometric tests: no
Removing all non-manifold edges (edges with > 2 connected faces) unless they cross multiple regions

Initial feature set:
    feature points : 4
    feature edges  : 4
    of which
        region edges   : 4
        external edges : 0
        internal edges : 0


Final feature set:
    points : 4
    of which
        convex             : 0
        concave            : 0
        mixed              : 4
        non-feature        : 0
    edges  : 4
    of which
        external edges     : 0
        internal edges     : 0
        flat edges         : 0
        open edges         : 4
        multiply connected : 0

Writing extendedFeatureEdgeMesh to "/home/openfoam/BackStep/constant/extendedFeatureEdgeMesh/step1.extendedFeatureEdgeMesh"

Writing extendedEdgeMesh components to "/home/openfoam/BackStep/constant/extendedFeatureEdgeMesh/step1"
Writing convex feature points to "/home/openfoam/BackStep/constant/extendedFeatureEdgeMesh/step1_convexFeaturePts.obj"
Writing concave feature points to "/home/openfoam/BackStep/constant/extendedFeatureEdgeMesh/step1_concaveFeaturePts.obj"
Writing mixed feature points to "/home/openfoam/BackStep/constant/extendedFeatureEdgeMesh/step1_mixedFeaturePts.obj"
Writing mixed feature point structure to "/home/openfoam/BackStep/constant/extendedFeatureEdgeMesh/step1_mixedFeaturePtsStructure.obj"
Writing external edges to "/home/openfoam/BackStep/constant/extendedFeatureEdgeMesh/step1_externalEdges.obj"
Writing internal edges to "/home/openfoam/BackStep/constant/extendedFeatureEdgeMesh/step1_internalEdges.obj"
Writing flat edges to "/home/openfoam/BackStep/constant/extendedFeatureEdgeMesh/step1_flatEdges.obj"
Writing open edges to "/home/openfoam/BackStep/constant/extendedFeatureEdgeMesh/step1_openEdges.obj"
Writing multiple edges to "/home/openfoam/BackStep/constant/extendedFeatureEdgeMesh/step1_multipleEdges.obj"
Writing region edges to "/home/openfoam/BackStep/constant/extendedFeatureEdgeMesh/step1_regionEdges.obj"
Writing edge directions to "/home/openfoam/BackStep/constant/extendedFeatureEdgeMesh/step1_edgeDirections.obj"

Writing featureEdgeMesh to "/home/openfoam/BackStep/constant/triSurface/step1.eMesh"

Surface            : "step2.stl"


Feature line extraction is only valid on closed manifold surfaces.
Statistics:
Triangles    : 2
Vertices     : 4
Bounding Box : (0.1 0 0) (0.1 0.3 0.1)


Constructing feature set from included angle 165
Selecting edges purely based on geometric tests: no
Removing all non-manifold edges (edges with > 2 connected faces) unless they cross multiple regions

Initial feature set:
    feature points : 4
    feature edges  : 4
    of which
        region edges   : 4
        external edges : 0
        internal edges : 0


Final feature set:
    points : 4
    of which
        convex             : 0
        concave            : 0
        mixed              : 4
        non-feature        : 0
    edges  : 4
    of which
        external edges     : 0
        internal edges     : 0
        flat edges         : 0
        open edges         : 4
        multiply connected : 0

Writing extendedFeatureEdgeMesh to "/home/openfoam/BackStep/constant/extendedFeatureEdgeMesh/step2.extendedFeatureEdgeMesh"

Writing extendedEdgeMesh components to "/home/openfoam/BackStep/constant/extendedFeatureEdgeMesh/step2"
Writing convex feature points to "/home/openfoam/BackStep/constant/extendedFeatureEdgeMesh/step2_convexFeaturePts.obj"
Writing concave feature points to "/home/openfoam/BackStep/constant/extendedFeatureEdgeMesh/step2_concaveFeaturePts.obj"
Writing mixed feature points to "/home/openfoam/BackStep/constant/extendedFeatureEdgeMesh/step2_mixedFeaturePts.obj"
Writing mixed feature point structure to "/home/openfoam/BackStep/constant/extendedFeatureEdgeMesh/step2_mixedFeaturePtsStructure.obj"
Writing external edges to "/home/openfoam/BackStep/constant/extendedFeatureEdgeMesh/step2_externalEdges.obj"
Writing internal edges to "/home/openfoam/BackStep/constant/extendedFeatureEdgeMesh/step2_internalEdges.obj"
Writing flat edges to "/home/openfoam/BackStep/constant/extendedFeatureEdgeMesh/step2_flatEdges.obj"
Writing open edges to "/home/openfoam/BackStep/constant/extendedFeatureEdgeMesh/step2_openEdges.obj"
Writing multiple edges to "/home/openfoam/BackStep/constant/extendedFeatureEdgeMesh/step2_multipleEdges.obj"
Writing region edges to "/home/openfoam/BackStep/constant/extendedFeatureEdgeMesh/step2_regionEdges.obj"
Writing edge directions to "/home/openfoam/BackStep/constant/extendedFeatureEdgeMesh/step2_edgeDirections.obj"

Writing featureEdgeMesh to "/home/openfoam/BackStep/constant/triSurface/step2.eMesh"

Surface            : "step3.stl"


Feature line extraction is only valid on closed manifold surfaces.
Statistics:
Triangles    : 2
Vertices     : 4
Bounding Box : (0.1 0 0) (1 0.3 0)


Constructing feature set from included angle 165
Selecting edges purely based on geometric tests: no
Removing all non-manifold edges (edges with > 2 connected faces) unless they cross multiple regions

Initial feature set:
    feature points : 4
    feature edges  : 4
    of which
        region edges   : 4
        external edges : 0
        internal edges : 0


Final feature set:
    points : 4
    of which
        convex             : 0
        concave            : 0
        mixed              : 4
        non-feature        : 0
    edges  : 4
    of which
        external edges     : 0
        internal edges     : 0
        flat edges         : 0
        open edges         : 4
        multiply connected : 0

Writing extendedFeatureEdgeMesh to "/home/openfoam/BackStep/constant/extendedFeatureEdgeMesh/step3.extendedFeatureEdgeMesh"

Writing extendedEdgeMesh components to "/home/openfoam/BackStep/constant/extendedFeatureEdgeMesh/step3"
Writing convex feature points to "/home/openfoam/BackStep/constant/extendedFeatureEdgeMesh/step3_convexFeaturePts.obj"
Writing concave feature points to "/home/openfoam/BackStep/constant/extendedFeatureEdgeMesh/step3_concaveFeaturePts.obj"
Writing mixed feature points to "/home/openfoam/BackStep/constant/extendedFeatureEdgeMesh/step3_mixedFeaturePts.obj"
Writing mixed feature point structure to "/home/openfoam/BackStep/constant/extendedFeatureEdgeMesh/step3_mixedFeaturePtsStructure.obj"
Writing external edges to "/home/openfoam/BackStep/constant/extendedFeatureEdgeMesh/step3_externalEdges.obj"
Writing internal edges to "/home/openfoam/BackStep/constant/extendedFeatureEdgeMesh/step3_internalEdges.obj"
Writing flat edges to "/home/openfoam/BackStep/constant/extendedFeatureEdgeMesh/step3_flatEdges.obj"
Writing open edges to "/home/openfoam/BackStep/constant/extendedFeatureEdgeMesh/step3_openEdges.obj"
Writing multiple edges to "/home/openfoam/BackStep/constant/extendedFeatureEdgeMesh/step3_multipleEdges.obj"
Writing region edges to "/home/openfoam/BackStep/constant/extendedFeatureEdgeMesh/step3_regionEdges.obj"
Writing edge directions to "/home/openfoam/BackStep/constant/extendedFeatureEdgeMesh/step3_edgeDirections.obj"

Writing featureEdgeMesh to "/home/openfoam/BackStep/constant/triSurface/step3.eMesh"

ExecutionTime = 0.2 s  ClockTime = 4 s

End

