/*---------------------------------------------------------------------------*\
  =========                 |
  \\      /  F ield         | OpenFOAM: The Open Source CFD Toolbox
   \\    /   O peration     | Website:  https://openfoam.org
    \\  /    A nd           | Version:  7
     \\/     M anipulation  |
\*---------------------------------------------------------------------------*/
Build  : 7-1ff648926f77
Exec   : simpleFoam
Date   : Jun 10 2021
Time   : 03:27:47
Host   : "9259b78b106d"
PID    : 178
I/O    : uncollated
Case   : /home/openfoam/BackStep
nProcs : 1
sigFpe : Enabling floating point exception trapping (FOAM_SIGFPE).
fileModificationChecking : Monitoring run-time modified files using timeStampMaster (fileModificationSkew 10)
allowSystemOperations : Allowing user-supplied system call operations

// * * * * * * * * * * * * * * * * * * * * * * * * * * * * * * * * * * * * * //
Create time

Create mesh for time = 0


SIMPLE: Convergence criteria found
        p: tolerance 0.01
        U: tolerance 0.001
        k: tolerance 0.001
        epsilon: tolerance 0.001

Reading field p

Reading field U

Reading/calculating face flux field phi

Selecting incompressible transport model Newtonian
Selecting turbulence model type RAS
Selecting RAS turbulence model kEpsilon
RAS
{
    RASModel        kEpsilon;
    turbulence      on;
    printCoeffs     on;
    Cmu             0.09;
    C1              1.44;
    C2              1.92;
    C3              0;
    sigmak          1;
    sigmaEps        1.3;
}

No MRF models present

No finite volume options present

Starting time loop

Time = 1

DILUPBiCG:  Solving for Ux, Initial residual = 1, Final residual = 0.000376357, No Iterations 1
DILUPBiCG:  Solving for Uy, Initial residual = 1, Final residual = 0.000206256, No Iterations 1
DILUPBiCG:  Solving for Uz, Initial residual = 1, Final residual = 0.000272021, No Iterations 1
DICPCG:  Solving for p, Initial residual = 1, Final residual = 0.00937266, No Iterations 94
time step continuity errors : sum local = 0.0646324, global = -0.00163816, cumulative = -0.00163816
DILUPBiCG:  Solving for epsilon, Initial residual = 0.772607, Final residual = 0.016044, No Iterations 2
bounding epsilon, min: -0.00037097 max: 0.0910737 average: 0.00301325
DILUPBiCG:  Solving for k, Initial residual = 1, Final residual = 0.0167502, No Iterations 2
bounding k, min: -0.000528595 max: 0.0551984 average: 0.00202335
ExecutionTime = 4.25 s  ClockTime = 6 s

Time = 2

DILUPBiCG:  Solving for Ux, Initial residual = 0.155438, Final residual = 0.0131863, No Iterations 1
DILUPBiCG:  Solving for Uy, Initial residual = 0.216564, Final residual = 0.00329714, No Iterations 2
DILUPBiCG:  Solving for Uz, Initial residual = 0.058912, Final residual = 0.00444888, No Iterations 1
DICPCG:  Solving for p, Initial residual = 0.491321, Final residual = 0.00461992, No Iterations 100
time step continuity errors : sum local = 0.0622934, global = 0.000612055, cumulative = -0.0010261
DILUPBiCG:  Solving for epsilon, Initial residual = 0.587688, Final residual = 0.020713, No Iterations 1
bounding epsilon, min: -0.14482 max: 0.970573 average: 0.00779542
DILUPBiCG:  Solving for k, Initial residual = 0.564866, Final residual = 0.0242862, No Iterations 1
bounding k, min: -0.14825 max: 0.381519 average: 0.00391592
ExecutionTime = 6.49 s  ClockTime = 8 s

Time = 3

DILUPBiCG:  Solving for Ux, Initial residual = 0.639951, Final residual = 0.00599289, No Iterations 2
DILUPBiCG:  Solving for Uy, Initial residual = 0.390657, Final residual = 0.0273322, No Iterations 1
DILUPBiCG:  Solving for Uz, Initial residual = 0.216368, Final residual = 0.0133951, No Iterations 1
DICPCG:  Solving for p, Initial residual = 0.0631185, Final residual = 0.000593461, No Iterations 85
time step continuity errors : sum local = 0.24198, global = 0.00797734, cumulative = 0.00695124
DILUPBiCG:  Solving for epsilon, Initial residual = 0.347459, Final residual = 0.0306322, No Iterations 1
bounding epsilon, min: -0.213684 max: 9.78784 average: 0.0140602
DILUPBiCG:  Solving for k, Initial residual = 0.386234, Final residual = 0.0036744, No Iterations 2
bounding k, min: -0.0425374 max: 1.44358 average: 0.00688697
ExecutionTime = 9.33 s  ClockTime = 11 s

Time = 4

DILUPBiCG:  Solving for Ux, Initial residual = 0.538486, Final residual = 0.00825604, No Iterations 2
DILUPBiCG:  Solving for Uy, Initial residual = 0.253912, Final residual = 0.00332396, No Iterations 2
DILUPBiCG:  Solving for Uz, Initial residual = 0.191053, Final residual = 0.0145287, No Iterations 1
DICPCG:  Solving for p, Initial residual = 0.0564962, Final residual = 0.000510903, No Iterations 87
time step continuity errors : sum local = 0.30118, global = 0.00252039, cumulative = 0.00947163
DILUPBiCG:  Solving for epsilon, Initial residual = 0.585918, Final residual = 0.00949093, No Iterations 2
bounding epsilon, min: -0.259498 max: 18.879 average: 0.0741946
DILUPBiCG:  Solving for k, Initial residual = 0.652264, Final residual = 0.0147131, No Iterations 2
bounding k, min: -0.469616 max: 7.35014 average: 0.0311374
ExecutionTime = 11.17 s  ClockTime = 13 s

Time = 5

DILUPBiCG:  Solving for Ux, Initial residual = 0.359817, Final residual = 0.0128732, No Iterations 2
DILUPBiCG:  Solving for Uy, Initial residual = 0.285417, Final residual = 0.0245731, No Iterations 1
DILUPBiCG:  Solving for Uz, Initial residual = 0.127947, Final residual = 0.0124228, No Iterations 1
DICPCG:  Solving for p, Initial residual = 0.0812391, Final residual = 0.000751468, No Iterations 88
time step continuity errors : sum local = 0.246224, global = -0.000979906, cumulative = 0.00849172
DILUPBiCG:  Solving for epsilon, Initial residual = 0.142413, Final residual = 0.00211296, No Iterations 2
bounding epsilon, min: -1.45634 max: 281.198 average: 0.674326
DILUPBiCG:  Solving for k, Initial residual = 0.39827, Final residual = 0.00871405, No Iterations 2
bounding k, min: -0.172314 max: 12.012 average: 0.0980733
ExecutionTime = 12.64 s  ClockTime = 14 s

Time = 6

DILUPBiCG:  Solving for Ux, Initial residual = 0.208874, Final residual = 0.00958487, No Iterations 2
DILUPBiCG:  Solving for Uy, Initial residual = 0.242008, Final residual = 0.0234157, No Iterations 1
DILUPBiCG:  Solving for Uz, Initial residual = 0.0845066, Final residual = 0.00185085, No Iterations 2
DICPCG:  Solving for p, Initial residual = 0.457303, Final residual = 0.0045092, No Iterations 86
time step continuity errors : sum local = 0.253557, global = -0.00223863, cumulative = 0.00625309
DILUPBiCG:  Solving for epsilon, Initial residual = 0.220467, Final residual = 0.00530046, No Iterations 2
bounding epsilon, min: -0.444858 max: 1439.32 average: 2.9778
DILUPBiCG:  Solving for k, Initial residual = 0.296623, Final residual = 0.00485538, No Iterations 2
bounding k, min: -0.0693216 max: 19.9818 average: 0.231136
ExecutionTime = 14.48 s  ClockTime = 16 s

Time = 7

DILUPBiCG:  Solving for Ux, Initial residual = 0.178677, Final residual = 0.0042174, No Iterations 2
DILUPBiCG:  Solving for Uy, Initial residual = 0.19446, Final residual = 0.00495638, No Iterations 2
DILUPBiCG:  Solving for Uz, Initial residual = 0.0840312, Final residual = 0.00262599, No Iterations 2
DICPCG:  Solving for p, Initial residual = 0.120294, Final residual = 0.00115448, No Iterations 84
time step continuity errors : sum local = 0.27466, global = -0.0154235, cumulative = -0.00917039
DILUPBiCG:  Solving for epsilon, Initial residual = 0.16678, Final residual = 0.00462681, No Iterations 2
bounding epsilon, min: -0.333358 max: 4381.09 average: 10.9415
DILUPBiCG:  Solving for k, Initial residual = 0.1914, Final residual = 0.00329511, No Iterations 2
bounding k, min: -0.0974433 max: 28.1704 average: 0.417857
ExecutionTime = 15.82 s  ClockTime = 18 s

Time = 8

DILUPBiCG:  Solving for Ux, Initial residual = 0.194472, Final residual = 0.00737062, No Iterations 2
DILUPBiCG:  Solving for Uy, Initial residual = 0.167749, Final residual = 0.00280981, No Iterations 2
DILUPBiCG:  Solving for Uz, Initial residual = 0.101374, Final residual = 0.00349921, No Iterations 2
DICPCG:  Solving for p, Initial residual = 0.102936, Final residual = 0.000933458, No Iterations 83
time step continuity errors : sum local = 0.245421, global = -0.0096928, cumulative = -0.0188632
DILUPBiCG:  Solving for epsilon, Initial residual = 0.117535, Final residual = 0.00333501, No Iterations 2
bounding epsilon, min: -0.12136 max: 8422.99 average: 26.0906
DILUPBiCG:  Solving for k, Initial residual = 0.146789, Final residual = 0.00268022, No Iterations 2
bounding k, min: -0.0681142 max: 43.1071 average: 0.633892
ExecutionTime = 17.39 s  ClockTime = 19 s

Time = 9

DILUPBiCG:  Solving for Ux, Initial residual = 0.156268, Final residual = 0.015042, No Iterations 2
DILUPBiCG:  Solving for Uy, Initial residual = 0.167051, Final residual = 0.00625538, No Iterations 2
DILUPBiCG:  Solving for Uz, Initial residual = 0.10021, Final residual = 0.00370227, No Iterations 2
DICPCG:  Solving for p, Initial residual = 0.17454, Final residual = 0.00174248, No Iterations 74
time step continuity errors : sum local = 0.216906, global = 0.00421433, cumulative = -0.0146489
DILUPBiCG:  Solving for epsilon, Initial residual = 0.0827272, Final residual = 0.00234739, No Iterations 2
bounding epsilon, min: -0.0943661 max: 14330.8 average: 44.7896
DILUPBiCG:  Solving for k, Initial residual = 0.116179, Final residual = 0.00210027, No Iterations 2
bounding k, min: -0.023399 max: 50.6958 average: 0.853837
ExecutionTime = 19.01 s  ClockTime = 21 s

Time = 10

DILUPBiCG:  Solving for Ux, Initial residual = 0.131967, Final residual = 0.00363938, No Iterations 2
DILUPBiCG:  Solving for Uy, Initial residual = 0.197305, Final residual = 0.00554283, No Iterations 2
DILUPBiCG:  Solving for Uz, Initial residual = 0.0931154, Final residual = 0.00407711, No Iterations 2
DICPCG:  Solving for p, Initial residual = 0.276137, Final residual = 0.00214613, No Iterations 85
time step continuity errors : sum local = 0.148329, global = 0.000333211, cumulative = -0.0143156
DILUPBiCG:  Solving for epsilon, Initial residual = 0.0600243, Final residual = 0.00166041, No Iterations 2
bounding epsilon, min: -0.107249 max: 16959.3 average: 58.8851
DILUPBiCG:  Solving for k, Initial residual = 0.0887006, Final residual = 0.0047208, No Iterations 2
bounding k, min: -0.0058439 max: 50.5309 average: 1.04833
ExecutionTime = 21.91 s  ClockTime = 24 s

Time = 11

DILUPBiCG:  Solving for Ux, Initial residual = 0.119024, Final residual = 0.00260427, No Iterations 2
DILUPBiCG:  Solving for Uy, Initial residual = 0.213865, Final residual = 0.00798704, No Iterations 2
DILUPBiCG:  Solving for Uz, Initial residual = 0.0915873, Final residual = 0.000547406, No Iterations 3
DICPCG:  Solving for p, Initial residual = 0.12646, Final residual = 0.00115694, No Iterations 87
time step continuity errors : sum local = 0.162099, global = 0.00091595, cumulative = -0.0133997
DILUPBiCG:  Solving for epsilon, Initial residual = 0.0429841, Final residual = 0.00121229, No Iterations 2
DILUPBiCG:  Solving for k, Initial residual = 0.0706089, Final residual = 0.0039779, No Iterations 2
bounding k, min: -5.25767e-05 max: 45.1653 average: 1.20962
ExecutionTime = 23.37 s  ClockTime = 26 s

Time = 12

DILUPBiCG:  Solving for Ux, Initial residual = 0.110874, Final residual = 0.00387721, No Iterations 2
DILUPBiCG:  Solving for Uy, Initial residual = 0.180481, Final residual = 0.00473546, No Iterations 2
DILUPBiCG:  Solving for Uz, Initial residual = 0.0712499, Final residual = 0.00414128, No Iterations 2
DICPCG:  Solving for p, Initial residual = 0.129498, Final residual = 0.00108063, No Iterations 74
time step continuity errors : sum local = 0.120182, global = -0.00511069, cumulative = -0.0185104
DILUPBiCG:  Solving for epsilon, Initial residual = 0.0437676, Final residual = 0.00135622, No Iterations 2
bounding epsilon, min: -0.00682912 max: 11891.1 average: 63.1853
DILUPBiCG:  Solving for k, Initial residual = 0.0575681, Final residual = 0.00384445, No Iterations 2
ExecutionTime = 25.19 s  ClockTime = 27 s

Time = 13

DILUPBiCG:  Solving for Ux, Initial residual = 0.0810949, Final residual = 0.0035765, No Iterations 2
DILUPBiCG:  Solving for Uy, Initial residual = 0.143267, Final residual = 0.00691185, No Iterations 2
DILUPBiCG:  Solving for Uz, Initial residual = 0.0459701, Final residual = 0.00101425, No Iterations 2
DICPCG:  Solving for p, Initial residual = 0.375917, Final residual = 0.00356744, No Iterations 75
time step continuity errors : sum local = 0.110277, global = -0.000828627, cumulative = -0.019339
DILUPBiCG:  Solving for epsilon, Initial residual = 0.0401917, Final residual = 0.00215742, No Iterations 2
DILUPBiCG:  Solving for k, Initial residual = 0.0497515, Final residual = 0.00202001, No Iterations 2
ExecutionTime = 26.77 s  ClockTime = 29 s

Time = 14

DILUPBiCG:  Solving for Ux, Initial residual = 0.0688274, Final residual = 0.00312007, No Iterations 2
DILUPBiCG:  Solving for Uy, Initial residual = 0.131722, Final residual = 0.00611102, No Iterations 2
DILUPBiCG:  Solving for Uz, Initial residual = 0.0422914, Final residual = 0.00202479, No Iterations 2
DICPCG:  Solving for p, Initial residual = 0.160947, Final residual = 0.00127316, No Iterations 86
time step continuity errors : sum local = 0.0843599, global = -2.62678e-05, cumulative = -0.0193653
DILUPBiCG:  Solving for epsilon, Initial residual = 0.0366018, Final residual = 0.00232508, No Iterations 2
DILUPBiCG:  Solving for k, Initial residual = 0.0449486, Final residual = 0.00149185, No Iterations 2
ExecutionTime = 28.45 s  ClockTime = 31 s

Time = 15

DILUPBiCG:  Solving for Ux, Initial residual = 0.060151, Final residual = 0.00134285, No Iterations 2
DILUPBiCG:  Solving for Uy, Initial residual = 0.115274, Final residual = 0.00548962, No Iterations 2
DILUPBiCG:  Solving for Uz, Initial residual = 0.0477266, Final residual = 0.00351967, No Iterations 2
DICPCG:  Solving for p, Initial residual = 0.116578, Final residual = 0.00112223, No Iterations 87
time step continuity errors : sum local = 0.0940765, global = -0.00112157, cumulative = -0.0204869
DILUPBiCG:  Solving for epsilon, Initial residual = 0.034419, Final residual = 0.00117977, No Iterations 2
DILUPBiCG:  Solving for k, Initial residual = 0.0412693, Final residual = 0.00122992, No Iterations 2
ExecutionTime = 30.44 s  ClockTime = 33 s

Time = 16

DILUPBiCG:  Solving for Ux, Initial residual = 0.0477919, Final residual = 0.00182474, No Iterations 2
DILUPBiCG:  Solving for Uy, Initial residual = 0.114684, Final residual = 0.00318424, No Iterations 2
DILUPBiCG:  Solving for Uz, Initial residual = 0.0463234, Final residual = 0.00212409, No Iterations 2
DICPCG:  Solving for p, Initial residual = 0.160409, Final residual = 0.00148239, No Iterations 86
time step continuity errors : sum local = 0.0742751, global = -0.00275318, cumulative = -0.02324
DILUPBiCG:  Solving for epsilon, Initial residual = 0.0317732, Final residual = 0.000528339, No Iterations 3
DILUPBiCG:  Solving for k, Initial residual = 0.0377356, Final residual = 0.00107417, No Iterations 2
ExecutionTime = 32.02 s  ClockTime = 34 s

Time = 17

DILUPBiCG:  Solving for Ux, Initial residual = 0.0378721, Final residual = 0.000743425, No Iterations 2
DILUPBiCG:  Solving for Uy, Initial residual = 0.126977, Final residual = 0.00368837, No Iterations 2
DILUPBiCG:  Solving for Uz, Initial residual = 0.0455156, Final residual = 0.00123055, No Iterations 2
DICPCG:  Solving for p, Initial residual = 0.447218, Final residual = 0.00440939, No Iterations 84
time step continuity errors : sum local = 0.067512, global = 0.00198824, cumulative = -0.0212518
DILUPBiCG:  Solving for epsilon, Initial residual = 0.0289719, Final residual = 0.000828998, No Iterations 2
DILUPBiCG:  Solving for k, Initial residual = 0.034476, Final residual = 0.000946712, No Iterations 2
ExecutionTime = 33.74 s  ClockTime = 36 s

Time = 18

DILUPBiCG:  Solving for Ux, Initial residual = 0.0378582, Final residual = 0.00166406, No Iterations 2
DILUPBiCG:  Solving for Uy, Initial residual = 0.124018, Final residual = 0.00396011, No Iterations 2
DILUPBiCG:  Solving for Uz, Initial residual = 0.0415125, Final residual = 0.00123488, No Iterations 2
DICPCG:  Solving for p, Initial residual = 0.171087, Final residual = 0.00166806, No Iterations 57
time step continuity errors : sum local = 0.0613842, global = 0.00400316, cumulative = -0.0172486
DILUPBiCG:  Solving for epsilon, Initial residual = 0.0272118, Final residual = 0.000702157, No Iterations 2
DILUPBiCG:  Solving for k, Initial residual = 0.0320699, Final residual = 0.00140291, No Iterations 2
ExecutionTime = 35.19 s  ClockTime = 38 s

Time = 19

DILUPBiCG:  Solving for Ux, Initial residual = 0.0357632, Final residual = 0.000679687, No Iterations 2
DILUPBiCG:  Solving for Uy, Initial residual = 0.106649, Final residual = 0.00233946, No Iterations 2
DILUPBiCG:  Solving for Uz, Initial residual = 0.0323767, Final residual = 0.000613649, No Iterations 2
DICPCG:  Solving for p, Initial residual = 0.146561, Final residual = 0.00137195, No Iterations 87
time step continuity errors : sum local = 0.0508044, global = 0.000773182, cumulative = -0.0164755
DILUPBiCG:  Solving for epsilon, Initial residual = 0.0255533, Final residual = 0.000591308, No Iterations 2
DILUPBiCG:  Solving for k, Initial residual = 0.0302334, Final residual = 0.00161037, No Iterations 2
ExecutionTime = 36.73 s  ClockTime = 39 s

Time = 20

DILUPBiCG:  Solving for Ux, Initial residual = 0.0293826, Final residual = 0.000652969, No Iterations 2
DILUPBiCG:  Solving for Uy, Initial residual = 0.0901169, Final residual = 0.0079143, No Iterations 2
DILUPBiCG:  Solving for Uz, Initial residual = 0.0244547, Final residual = 0.000606156, No Iterations 2
DICPCG:  Solving for p, Initial residual = 0.286468, Final residual = 0.00285376, No Iterations 82
time step continuity errors : sum local = 0.0456992, global = 0.00291015, cumulative = -0.0135653
DILUPBiCG:  Solving for epsilon, Initial residual = 0.024097, Final residual = 0.000534106, No Iterations 2
DILUPBiCG:  Solving for k, Initial residual = 0.0287229, Final residual = 0.000227868, No Iterations 3
ExecutionTime = 38.2 s  ClockTime = 41 s

Time = 21

DILUPBiCG:  Solving for Ux, Initial residual = 0.0252259, Final residual = 0.000402174, No Iterations 2
DILUPBiCG:  Solving for Uy, Initial residual = 0.0794128, Final residual = 0.00204785, No Iterations 2
DILUPBiCG:  Solving for Uz, Initial residual = 0.0238713, Final residual = 0.000780326, No Iterations 2
DICPCG:  Solving for p, Initial residual = 0.212563, Final residual = 0.00200716, No Iterations 85
time step continuity errors : sum local = 0.0393426, global = -0.000118924, cumulative = -0.0136842
DILUPBiCG:  Solving for epsilon, Initial residual = 0.0228661, Final residual = 0.000553452, No Iterations 2
DILUPBiCG:  Solving for k, Initial residual = 0.0274514, Final residual = 0.00126381, No Iterations 2
ExecutionTime = 39.7 s  ClockTime = 42 s

Time = 22

DILUPBiCG:  Solving for Ux, Initial residual = 0.0211789, Final residual = 0.00064868, No Iterations 2
DILUPBiCG:  Solving for Uy, Initial residual = 0.0747322, Final residual = 0.00167462, No Iterations 2
DILUPBiCG:  Solving for Uz, Initial residual = 0.0245948, Final residual = 0.000933188, No Iterations 2
DICPCG:  Solving for p, Initial residual = 0.130445, Final residual = 0.00123847, No Iterations 85
time step continuity errors : sum local = 0.0356232, global = -0.00109041, cumulative = -0.0147746
DILUPBiCG:  Solving for epsilon, Initial residual = 0.0214146, Final residual = 9.67538e-05, No Iterations 3
DILUPBiCG:  Solving for k, Initial residual = 0.0262804, Final residual = 0.000186825, No Iterations 3
ExecutionTime = 41.31 s  ClockTime = 44 s

Time = 23

DILUPBiCG:  Solving for Ux, Initial residual = 0.0175451, Final residual = 0.000386756, No Iterations 2
DILUPBiCG:  Solving for Uy, Initial residual = 0.0767499, Final residual = 0.00178696, No Iterations 2
DILUPBiCG:  Solving for Uz, Initial residual = 0.0252076, Final residual = 0.000953164, No Iterations 2
DICPCG:  Solving for p, Initial residual = 0.133576, Final residual = 0.00118469, No Iterations 84
time step continuity errors : sum local = 0.0287387, global = -0.00123631, cumulative = -0.016011
DILUPBiCG:  Solving for epsilon, Initial residual = 0.020212, Final residual = 0.000121734, No Iterations 3
DILUPBiCG:  Solving for k, Initial residual = 0.0252517, Final residual = 0.00116678, No Iterations 2
ExecutionTime = 43.34 s  ClockTime = 46 s

Time = 24

DILUPBiCG:  Solving for Ux, Initial residual = 0.0161392, Final residual = 0.000539228, No Iterations 2
DILUPBiCG:  Solving for Uy, Initial residual = 0.0793129, Final residual = 0.000533054, No Iterations 3
DILUPBiCG:  Solving for Uz, Initial residual = 0.0250626, Final residual = 0.000810582, No Iterations 2
DICPCG:  Solving for p, Initial residual = 0.216779, Final residual = 0.00198866, No Iterations 78
time step continuity errors : sum local = 0.0269528, global = -0.00105609, cumulative = -0.017067
DILUPBiCG:  Solving for epsilon, Initial residual = 0.0192382, Final residual = 0.000811493, No Iterations 3
DILUPBiCG:  Solving for k, Initial residual = 0.0243835, Final residual = 0.00013836, No Iterations 3
ExecutionTime = 45.03 s  ClockTime = 48 s

Time = 25

DILUPBiCG:  Solving for Ux, Initial residual = 0.0160305, Final residual = 0.000511273, No Iterations 2
DILUPBiCG:  Solving for Uy, Initial residual = 0.0779377, Final residual = 0.00154576, No Iterations 2
DILUPBiCG:  Solving for Uz, Initial residual = 0.0231787, Final residual = 0.000658871, No Iterations 2
DICPCG:  Solving for p, Initial residual = 0.478526, Final residual = 0.00410359, No Iterations 84
time step continuity errors : sum local = 0.0230795, global = 0.000738344, cumulative = -0.0163287
DILUPBiCG:  Solving for epsilon, Initial residual = 0.0188636, Final residual = 0.000804571, No Iterations 3
DILUPBiCG:  Solving for k, Initial residual = 0.0235195, Final residual = 0.000802734, No Iterations 2
ExecutionTime = 47.9 s  ClockTime = 51 s

Time = 26

DILUPBiCG:  Solving for Ux, Initial residual = 0.015528, Final residual = 0.000385539, No Iterations 2
DILUPBiCG:  Solving for Uy, Initial residual = 0.0717783, Final residual = 0.00122677, No Iterations 2
DILUPBiCG:  Solving for Uz, Initial residual = 0.0203619, Final residual = 0.000503425, No Iterations 2
DICPCG:  Solving for p, Initial residual = 0.283989, Final residual = 0.00249975, No Iterations 84
time step continuity errors : sum local = 0.0208103, global = 0.000944452, cumulative = -0.0153842
DILUPBiCG:  Solving for epsilon, Initial residual = 0.0180327, Final residual = 0.000144965, No Iterations 3
DILUPBiCG:  Solving for k, Initial residual = 0.0228132, Final residual = 0.000794624, No Iterations 2
ExecutionTime = 49.98 s  ClockTime = 53 s

Time = 27

DILUPBiCG:  Solving for Ux, Initial residual = 0.0143242, Final residual = 0.000332114, No Iterations 2
DILUPBiCG:  Solving for Uy, Initial residual = 0.0660706, Final residual = 0.00133576, No Iterations 2
DILUPBiCG:  Solving for Uz, Initial residual = 0.0183896, Final residual = 0.000508082, No Iterations 2
DICPCG:  Solving for p, Initial residual = 0.373216, Final residual = 0.00369562, No Iterations 72
time step continuity errors : sum local = 0.0203447, global = 0.000169971, cumulative = -0.0152143
DILUPBiCG:  Solving for epsilon, Initial residual = 0.0172697, Final residual = 0.000113334, No Iterations 3
DILUPBiCG:  Solving for k, Initial residual = 0.0222099, Final residual = 0.000831188, No Iterations 2
ExecutionTime = 51.5 s  ClockTime = 54 s

Time = 28

DILUPBiCG:  Solving for Ux, Initial residual = 0.0130292, Final residual = 0.000398382, No Iterations 2
DILUPBiCG:  Solving for Uy, Initial residual = 0.0620816, Final residual = 0.00225393, No Iterations 2
DILUPBiCG:  Solving for Uz, Initial residual = 0.0172518, Final residual = 0.000536897, No Iterations 2
DICPCG:  Solving for p, Initial residual = 0.233833, Final residual = 0.0020761, No Iterations 78
time step continuity errors : sum local = 0.0165514, global = -0.000248754, cumulative = -0.015463
DILUPBiCG:  Solving for epsilon, Initial residual = 0.016624, Final residual = 0.00011537, No Iterations 3
DILUPBiCG:  Solving for k, Initial residual = 0.0216129, Final residual = 0.000739802, No Iterations 2
ExecutionTime = 53.18 s  ClockTime = 56 s

Time = 29

DILUPBiCG:  Solving for Ux, Initial residual = 0.0119425, Final residual = 0.000428753, No Iterations 2
DILUPBiCG:  Solving for Uy, Initial residual = 0.0591759, Final residual = 0.00208679, No Iterations 2
DILUPBiCG:  Solving for Uz, Initial residual = 0.0167343, Final residual = 0.000586145, No Iterations 2
DICPCG:  Solving for p, Initial residual = 0.148358, Final residual = 0.00136464, No Iterations 73
time step continuity errors : sum local = 0.0154169, global = 0.000537144, cumulative = -0.0149259
DILUPBiCG:  Solving for epsilon, Initial residual = 0.0160566, Final residual = 0.00154212, No Iterations 3
DILUPBiCG:  Solving for k, Initial residual = 0.0210955, Final residual = 0.000724636, No Iterations 2
ExecutionTime = 55.41 s  ClockTime = 58 s

Time = 30

DILUPBiCG:  Solving for Ux, Initial residual = 0.0110007, Final residual = 8.69587e-05, No Iterations 3
DILUPBiCG:  Solving for Uy, Initial residual = 0.0562614, Final residual = 0.00190574, No Iterations 2
DILUPBiCG:  Solving for Uz, Initial residual = 0.0166241, Final residual = 0.000642984, No Iterations 2
DICPCG:  Solving for p, Initial residual = 0.118997, Final residual = 0.00101736, No Iterations 82
time step continuity errors : sum local = 0.0127508, global = -0.000519454, cumulative = -0.0154453
DILUPBiCG:  Solving for epsilon, Initial residual = 0.015568, Final residual = 0.000260061, No Iterations 3
DILUPBiCG:  Solving for k, Initial residual = 0.0206582, Final residual = 0.000605086, No Iterations 2
ExecutionTime = 56.77 s  ClockTime = 60 s

Time = 31

DILUPBiCG:  Solving for Ux, Initial residual = 0.010313, Final residual = 0.000437088, No Iterations 2
DILUPBiCG:  Solving for Uy, Initial residual = 0.0548787, Final residual = 0.00112017, No Iterations 2
DILUPBiCG:  Solving for Uz, Initial residual = 0.0165519, Final residual = 0.000646966, No Iterations 2
DICPCG:  Solving for p, Initial residual = 0.112911, Final residual = 0.00103478, No Iterations 80
time step continuity errors : sum local = 0.0120359, global = -0.000257452, cumulative = -0.0157028
DILUPBiCG:  Solving for epsilon, Initial residual = 0.014936, Final residual = 0.000168556, No Iterations 3
DILUPBiCG:  Solving for k, Initial residual = 0.0201417, Final residual = 0.000538103, No Iterations 2
ExecutionTime = 58.45 s  ClockTime = 62 s

Time = 32

DILUPBiCG:  Solving for Ux, Initial residual = 0.0100484, Final residual = 0.00038002, No Iterations 2
DILUPBiCG:  Solving for Uy, Initial residual = 0.0540649, Final residual = 0.00113055, No Iterations 2
DILUPBiCG:  Solving for Uz, Initial residual = 0.0158071, Final residual = 0.000574087, No Iterations 2
DICPCG:  Solving for p, Initial residual = 0.118561, Final residual = 0.00100456, No Iterations 79
time step continuity errors : sum local = 0.0101507, global = 6.80861e-05, cumulative = -0.0156347
DILUPBiCG:  Solving for epsilon, Initial residual = 0.0145248, Final residual = 0.00141491, No Iterations 2
DILUPBiCG:  Solving for k, Initial residual = 0.0196702, Final residual = 0.000504659, No Iterations 2
ExecutionTime = 60.64 s  ClockTime = 64 s

Time = 33

DILUPBiCG:  Solving for Ux, Initial residual = 0.00986298, Final residual = 0.000378713, No Iterations 2
DILUPBiCG:  Solving for Uy, Initial residual = 0.0528195, Final residual = 0.00120236, No Iterations 2
DILUPBiCG:  Solving for Uz, Initial residual = 0.0146303, Final residual = 0.000512237, No Iterations 2
DICPCG:  Solving for p, Initial residual = 0.130901, Final residual = 0.0012036, No Iterations 79
time step continuity errors : sum local = 0.0100699, global = 0.000418174, cumulative = -0.0152165
DILUPBiCG:  Solving for epsilon, Initial residual = 0.0138076, Final residual = 0.000127282, No Iterations 3
DILUPBiCG:  Solving for k, Initial residual = 0.0192102, Final residual = 0.000495342, No Iterations 2
ExecutionTime = 61.92 s  ClockTime = 65 s

Time = 34

DILUPBiCG:  Solving for Ux, Initial residual = 0.00949544, Final residual = 0.000394837, No Iterations 2
DILUPBiCG:  Solving for Uy, Initial residual = 0.0508425, Final residual = 0.00184722, No Iterations 2
DILUPBiCG:  Solving for Uz, Initial residual = 0.0137025, Final residual = 0.000499316, No Iterations 2
DICPCG:  Solving for p, Initial residual = 0.126125, Final residual = 0.00117923, No Iterations 77
time step continuity errors : sum local = 0.00924125, global = -3.43645e-05, cumulative = -0.0152509
DILUPBiCG:  Solving for epsilon, Initial residual = 0.0133269, Final residual = 0.00121275, No Iterations 2
DILUPBiCG:  Solving for k, Initial residual = 0.018834, Final residual = 0.000478411, No Iterations 2
ExecutionTime = 63.21 s  ClockTime = 66 s

Time = 35

DILUPBiCG:  Solving for Ux, Initial residual = 0.00901719, Final residual = 0.000442415, No Iterations 2
DILUPBiCG:  Solving for Uy, Initial residual = 0.0485883, Final residual = 0.00264004, No Iterations 2
DILUPBiCG:  Solving for Uz, Initial residual = 0.0133645, Final residual = 0.000530368, No Iterations 2
DICPCG:  Solving for p, Initial residual = 0.108197, Final residual = 0.000937206, No Iterations 78
time step continuity errors : sum local = 0.00753012, global = -0.000177895, cumulative = -0.0154288
DILUPBiCG:  Solving for epsilon, Initial residual = 0.0130883, Final residual = 6.7666e-05, No Iterations 3
DILUPBiCG:  Solving for k, Initial residual = 0.018491, Final residual = 0.00046844, No Iterations 2
ExecutionTime = 65.35 s  ClockTime = 69 s

Time = 36

DILUPBiCG:  Solving for Ux, Initial residual = 0.00854317, Final residual = 0.000581329, No Iterations 2
DILUPBiCG:  Solving for Uy, Initial residual = 0.0467209, Final residual = 0.0015291, No Iterations 2
DILUPBiCG:  Solving for Uz, Initial residual = 0.0131576, Final residual = 0.000607426, No Iterations 2
DICPCG:  Solving for p, Initial residual = 0.0869729, Final residual = 0.000866611, No Iterations 75
time step continuity errors : sum local = 0.00771976, global = -0.000476494, cumulative = -0.0159053
DILUPBiCG:  Solving for epsilon, Initial residual = 0.0125865, Final residual = 7.02784e-05, No Iterations 3
DILUPBiCG:  Solving for k, Initial residual = 0.0181074, Final residual = 0.000435546, No Iterations 2
ExecutionTime = 66.92 s  ClockTime = 71 s

Time = 37

DILUPBiCG:  Solving for Ux, Initial residual = 0.00815236, Final residual = 0.00079896, No Iterations 2
DILUPBiCG:  Solving for Uy, Initial residual = 0.0453236, Final residual = 0.0011585, No Iterations 2
DILUPBiCG:  Solving for Uz, Initial residual = 0.0128494, Final residual = 0.000690312, No Iterations 2
DICPCG:  Solving for p, Initial residual = 0.0719107, Final residual = 0.000692063, No Iterations 73
time step continuity errors : sum local = 0.00684338, global = -0.000336773, cumulative = -0.0162421
DILUPBiCG:  Solving for epsilon, Initial residual = 0.0121261, Final residual = 0.000804968, No Iterations 2
DILUPBiCG:  Solving for k, Initial residual = 0.0177438, Final residual = 0.000415119, No Iterations 2
ExecutionTime = 68.13 s  ClockTime = 72 s

Time = 38

DILUPBiCG:  Solving for Ux, Initial residual = 0.0078597, Final residual = 0.00075131, No Iterations 2
DILUPBiCG:  Solving for Uy, Initial residual = 0.0440271, Final residual = 0.000942536, No Iterations 2
DILUPBiCG:  Solving for Uz, Initial residual = 0.0123942, Final residual = 0.000706256, No Iterations 2
DICPCG:  Solving for p, Initial residual = 0.0640046, Final residual = 0.000589501, No Iterations 70
time step continuity errors : sum local = 0.00600668, global = -0.000242582, cumulative = -0.0164846
DILUPBiCG:  Solving for epsilon, Initial residual = 0.011813, Final residual = 7.20483e-05, No Iterations 3
DILUPBiCG:  Solving for k, Initial residual = 0.0174198, Final residual = 0.000408244, No Iterations 2
ExecutionTime = 69.34 s  ClockTime = 73 s

Time = 39

DILUPBiCG:  Solving for Ux, Initial residual = 0.00762733, Final residual = 0.000609162, No Iterations 2
DILUPBiCG:  Solving for Uy, Initial residual = 0.0431516, Final residual = 0.000863415, No Iterations 2
DILUPBiCG:  Solving for Uz, Initial residual = 0.0119439, Final residual = 0.000660574, No Iterations 2
DICPCG:  Solving for p, Initial residual = 0.0591206, Final residual = 0.000573448, No Iterations 29
time step continuity errors : sum local = 0.00583003, global = 0.000831996, cumulative = -0.0156526
DILUPBiCG:  Solving for epsilon, Initial residual = 0.0113571, Final residual = 0.000529488, No Iterations 2
DILUPBiCG:  Solving for k, Initial residual = 0.0171104, Final residual = 0.000412924, No Iterations 2
ExecutionTime = 70.32 s  ClockTime = 74 s

Time = 40

DILUPBiCG:  Solving for Ux, Initial residual = 0.00741329, Final residual = 0.000479503, No Iterations 2
DILUPBiCG:  Solving for Uy, Initial residual = 0.0428291, Final residual = 0.000868206, No Iterations 2
DILUPBiCG:  Solving for Uz, Initial residual = 0.0115635, Final residual = 0.000595492, No Iterations 2
DICPCG:  Solving for p, Initial residual = 0.0526558, Final residual = 0.000460993, No Iterations 73
time step continuity errors : sum local = 0.00468663, global = 0.000396838, cumulative = -0.0152558
DILUPBiCG:  Solving for epsilon, Initial residual = 0.01102, Final residual = 0.000463879, No Iterations 2
DILUPBiCG:  Solving for k, Initial residual = 0.0168012, Final residual = 0.000391473, No Iterations 2
ExecutionTime = 71.94 s  ClockTime = 76 s

Time = 41

DILUPBiCG:  Solving for Ux, Initial residual = 0.00717618, Final residual = 0.000419962, No Iterations 2
DILUPBiCG:  Solving for Uy, Initial residual = 0.0425517, Final residual = 0.000918339, No Iterations 2
DILUPBiCG:  Solving for Uz, Initial residual = 0.0112475, Final residual = 0.000557161, No Iterations 2
DICPCG:  Solving for p, Initial residual = 0.0466643, Final residual = 0.000452708, No Iterations 41
time step continuity errors : sum local = 0.00477966, global = 0.00107266, cumulative = -0.0141831
DILUPBiCG:  Solving for epsilon, Initial residual = 0.0106582, Final residual = 0.000471919, No Iterations 2
DILUPBiCG:  Solving for k, Initial residual = 0.0165365, Final residual = 0.000372608, No Iterations 2
ExecutionTime = 74.12 s  ClockTime = 78 s

Time = 42

DILUPBiCG:  Solving for Ux, Initial residual = 0.00696927, Final residual = 0.000382548, No Iterations 2
DILUPBiCG:  Solving for Uy, Initial residual = 0.0418005, Final residual = 0.000971243, No Iterations 2
DILUPBiCG:  Solving for Uz, Initial residual = 0.0109484, Final residual = 0.000541531, No Iterations 2
DICPCG:  Solving for p, Initial residual = 0.043777, Final residual = 0.000411843, No Iterations 65
time step continuity errors : sum local = 0.00418287, global = 1.34599e-05, cumulative = -0.0141697
DILUPBiCG:  Solving for epsilon, Initial residual = 0.0103476, Final residual = 0.000334468, No Iterations 2
DILUPBiCG:  Solving for k, Initial residual = 0.0162693, Final residual = 0.000373632, No Iterations 2
ExecutionTime = 76.07 s  ClockTime = 80 s

Time = 43

DILUPBiCG:  Solving for Ux, Initial residual = 0.00675492, Final residual = 0.000366629, No Iterations 2
DILUPBiCG:  Solving for Uy, Initial residual = 0.04051, Final residual = 0.000978723, No Iterations 2
DILUPBiCG:  Solving for Uz, Initial residual = 0.010725, Final residual = 0.000538137, No Iterations 2
DICPCG:  Solving for p, Initial residual = 0.0397065, Final residual = 0.000378189, No Iterations 38
time step continuity errors : sum local = 0.00393623, global = 0.000870655, cumulative = -0.013299
DILUPBiCG:  Solving for epsilon, Initial residual = 0.0100275, Final residual = 0.000284335, No Iterations 2
DILUPBiCG:  Solving for k, Initial residual = 0.0160065, Final residual = 0.000369321, No Iterations 2
ExecutionTime = 77.14 s  ClockTime = 81 s

Time = 44

DILUPBiCG:  Solving for Ux, Initial residual = 0.0065663, Final residual = 0.000357754, No Iterations 2
DILUPBiCG:  Solving for Uy, Initial residual = 0.0392939, Final residual = 0.00094206, No Iterations 2
DILUPBiCG:  Solving for Uz, Initial residual = 0.0105567, Final residual = 0.000525545, No Iterations 2
DICPCG:  Solving for p, Initial residual = 0.0381335, Final residual = 0.000348112, No Iterations 68
time step continuity errors : sum local = 0.00346536, global = -0.000259429, cumulative = -0.0135585
DILUPBiCG:  Solving for epsilon, Initial residual = 0.00969132, Final residual = 0.000283838, No Iterations 2
DILUPBiCG:  Solving for k, Initial residual = 0.0157545, Final residual = 0.000365947, No Iterations 2
ExecutionTime = 78.33 s  ClockTime = 82 s

Time = 45

DILUPBiCG:  Solving for Ux, Initial residual = 0.00637885, Final residual = 0.0003492, No Iterations 2
DILUPBiCG:  Solving for Uy, Initial residual = 0.038392, Final residual = 0.000886011, No Iterations 2
DILUPBiCG:  Solving for Uz, Initial residual = 0.0104046, Final residual = 0.000512889, No Iterations 2
DICPCG:  Solving for p, Initial residual = 0.0352063, Final residual = 0.000347214, No Iterations 52
time step continuity errors : sum local = 0.00352273, global = 0.000368669, cumulative = -0.0131898
DILUPBiCG:  Solving for epsilon, Initial residual = 0.00938432, Final residual = 0.00025134, No Iterations 2
DILUPBiCG:  Solving for k, Initial residual = 0.0155118, Final residual = 0.000358242, No Iterations 2
ExecutionTime = 79.76 s  ClockTime = 84 s

Time = 46

DILUPBiCG:  Solving for Ux, Initial residual = 0.00621387, Final residual = 0.000307752, No Iterations 2
DILUPBiCG:  Solving for Uy, Initial residual = 0.0378458, Final residual = 0.000843895, No Iterations 2
DILUPBiCG:  Solving for Uz, Initial residual = 0.0102418, Final residual = 0.000508164, No Iterations 2
DICPCG:  Solving for p, Initial residual = 0.0333722, Final residual = 0.000302088, No Iterations 70
time step continuity errors : sum local = 0.00302678, global = -0.000197309, cumulative = -0.0133871
DILUPBiCG:  Solving for epsilon, Initial residual = 0.00910613, Final residual = 0.000228475, No Iterations 2
DILUPBiCG:  Solving for k, Initial residual = 0.0152947, Final residual = 0.000351877, No Iterations 2
ExecutionTime = 80.96 s  ClockTime = 85 s

Time = 47

DILUPBiCG:  Solving for Ux, Initial residual = 0.00604872, Final residual = 0.000300779, No Iterations 2
DILUPBiCG:  Solving for Uy, Initial residual = 0.0375645, Final residual = 0.000808627, No Iterations 2
DILUPBiCG:  Solving for Uz, Initial residual = 0.0100876, Final residual = 0.000508152, No Iterations 2
DICPCG:  Solving for p, Initial residual = 0.0314222, Final residual = 0.00031171, No Iterations 72
time step continuity errors : sum local = 0.00317755, global = -0.000203165, cumulative = -0.0135903
DILUPBiCG:  Solving for epsilon, Initial residual = 0.00883411, Final residual = 0.000217851, No Iterations 2
DILUPBiCG:  Solving for k, Initial residual = 0.0150596, Final residual = 0.000348796, No Iterations 2
ExecutionTime = 82.18 s  ClockTime = 86 s

Time = 48

DILUPBiCG:  Solving for Ux, Initial residual = 0.00591472, Final residual = 0.000242716, No Iterations 2
DILUPBiCG:  Solving for Uy, Initial residual = 0.0372573, Final residual = 0.000801631, No Iterations 2
DILUPBiCG:  Solving for Uz, Initial residual = 0.0099092, Final residual = 0.000510513, No Iterations 2
DICPCG:  Solving for p, Initial residual = 0.029995, Final residual = 0.000272733, No Iterations 73
time step continuity errors : sum local = 0.00270776, global = -0.000121445, cumulative = -0.0137117
DILUPBiCG:  Solving for epsilon, Initial residual = 0.00857243, Final residual = 0.000212433, No Iterations 2
DILUPBiCG:  Solving for k, Initial residual = 0.0148401, Final residual = 0.000344384, No Iterations 2
ExecutionTime = 83.51 s  ClockTime = 88 s

Time = 49

DILUPBiCG:  Solving for Ux, Initial residual = 0.00577733, Final residual = 0.000225498, No Iterations 2
DILUPBiCG:  Solving for Uy, Initial residual = 0.0369152, Final residual = 0.000789466, No Iterations 2
DILUPBiCG:  Solving for Uz, Initial residual = 0.00974796, Final residual = 0.000504408, No Iterations 2
DICPCG:  Solving for p, Initial residual = 0.0276113, Final residual = 0.000259774, No Iterations 72
time step continuity errors : sum local = 0.00268564, global = -2.75113e-05, cumulative = -0.0137392
DILUPBiCG:  Solving for epsilon, Initial residual = 0.00833533, Final residual = 0.000205043, No Iterations 2
DILUPBiCG:  Solving for k, Initial residual = 0.0146283, Final residual = 0.000339397, No Iterations 2
ExecutionTime = 85.52 s  ClockTime = 90 s

Time = 50

DILUPBiCG:  Solving for Ux, Initial residual = 0.00565785, Final residual = 0.00017133, No Iterations 2
DILUPBiCG:  Solving for Uy, Initial residual = 0.036408, Final residual = 0.000779483, No Iterations 2
DILUPBiCG:  Solving for Uz, Initial residual = 0.00959016, Final residual = 0.000516726, No Iterations 2
DICPCG:  Solving for p, Initial residual = 0.0271124, Final residual = 0.000270613, No Iterations 41
time step continuity errors : sum local = 0.00268094, global = 0.000596504, cumulative = -0.0131427
DILUPBiCG:  Solving for epsilon, Initial residual = 0.00809514, Final residual = 0.000199669, No Iterations 2
DILUPBiCG:  Solving for k, Initial residual = 0.0144391, Final residual = 0.000333631, No Iterations 2
ExecutionTime = 86.83 s  ClockTime = 91 s

Time = 51

DILUPBiCG:  Solving for Ux, Initial residual = 0.00554692, Final residual = 0.000148249, No Iterations 2
DILUPBiCG:  Solving for Uy, Initial residual = 0.0359023, Final residual = 0.000771878, No Iterations 2
DILUPBiCG:  Solving for Uz, Initial residual = 0.00946945, Final residual = 0.000526916, No Iterations 2
DICPCG:  Solving for p, Initial residual = 0.0257189, Final residual = 0.000238798, No Iterations 73
time step continuity errors : sum local = 0.00238988, global = 9.55603e-05, cumulative = -0.0130472
DILUPBiCG:  Solving for epsilon, Initial residual = 0.00787652, Final residual = 0.000195598, No Iterations 2
DILUPBiCG:  Solving for k, Initial residual = 0.0142439, Final residual = 0.000333835, No Iterations 2
ExecutionTime = 88.29 s  ClockTime = 93 s

Time = 52

DILUPBiCG:  Solving for Ux, Initial residual = 0.00543441, Final residual = 0.000127958, No Iterations 2
DILUPBiCG:  Solving for Uy, Initial residual = 0.0353181, Final residual = 0.000787998, No Iterations 2
DILUPBiCG:  Solving for Uz, Initial residual = 0.00937537, Final residual = 0.000557756, No Iterations 2
DICPCG:  Solving for p, Initial residual = 0.0256538, Final residual = 0.000251274, No Iterations 73
time step continuity errors : sum local = 0.00238601, global = 6.75859e-05, cumulative = -0.0129796
DILUPBiCG:  Solving for epsilon, Initial residual = 0.00769003, Final residual = 0.000196449, No Iterations 2
DILUPBiCG:  Solving for k, Initial residual = 0.0140429, Final residual = 0.000334889, No Iterations 2
ExecutionTime = 90.06 s  ClockTime = 94 s

Time = 53

DILUPBiCG:  Solving for Ux, Initial residual = 0.00531947, Final residual = 0.000124481, No Iterations 2
DILUPBiCG:  Solving for Uy, Initial residual = 0.034752, Final residual = 0.000775851, No Iterations 2
DILUPBiCG:  Solving for Uz, Initial residual = 0.00929705, Final residual = 0.000538649, No Iterations 2
DICPCG:  Solving for p, Initial residual = 0.0242279, Final residual = 0.000222264, No Iterations 74
time step continuity errors : sum local = 0.00219681, global = 5.15791e-05, cumulative = -0.012928
DILUPBiCG:  Solving for epsilon, Initial residual = 0.00747412, Final residual = 0.00018416, No Iterations 2
DILUPBiCG:  Solving for k, Initial residual = 0.0138592, Final residual = 0.000337716, No Iterations 2
ExecutionTime = 91.8 s  ClockTime = 96 s

Time = 54

DILUPBiCG:  Solving for Ux, Initial residual = 0.00522871, Final residual = 0.000116551, No Iterations 2
DILUPBiCG:  Solving for Uy, Initial residual = 0.0342811, Final residual = 0.000769467, No Iterations 2
DILUPBiCG:  Solving for Uz, Initial residual = 0.0092199, Final residual = 0.000541885, No Iterations 2
DICPCG:  Solving for p, Initial residual = 0.0250465, Final residual = 0.000248818, No Iterations 53
time step continuity errors : sum local = 0.00226833, global = 0.000264077, cumulative = -0.0126639
DILUPBiCG:  Solving for epsilon, Initial residual = 0.00729467, Final residual = 0.000180736, No Iterations 2
DILUPBiCG:  Solving for k, Initial residual = 0.0136805, Final residual = 0.000339601, No Iterations 2
ExecutionTime = 92.93 s  ClockTime = 97 s

Time = 55

DILUPBiCG:  Solving for Ux, Initial residual = 0.00513095, Final residual = 0.000105013, No Iterations 2
DILUPBiCG:  Solving for Uy, Initial residual = 0.0339802, Final residual = 0.000750542, No Iterations 2
DILUPBiCG:  Solving for Uz, Initial residual = 0.00915336, Final residual = 0.000511634, No Iterations 2
DICPCG:  Solving for p, Initial residual = 0.0234137, Final residual = 0.000194482, No Iterations 76
time step continuity errors : sum local = 0.00187511, global = 7.80476e-05, cumulative = -0.0125859
DILUPBiCG:  Solving for epsilon, Initial residual = 0.00714615, Final residual = 0.000176079, No Iterations 2
DILUPBiCG:  Solving for k, Initial residual = 0.0135035, Final residual = 0.00034589, No Iterations 2
ExecutionTime = 94.38 s  ClockTime = 99 s

Time = 56

DILUPBiCG:  Solving for Ux, Initial residual = 0.00504168, Final residual = 0.000102718, No Iterations 2
DILUPBiCG:  Solving for Uy, Initial residual = 0.0337649, Final residual = 0.000722642, No Iterations 2
DILUPBiCG:  Solving for Uz, Initial residual = 0.00910452, Final residual = 0.000494677, No Iterations 2
DICPCG:  Solving for p, Initial residual = 0.0229262, Final residual = 0.000228956, No Iterations 76
time step continuity errors : sum local = 0.00213835, global = 9.44502e-05, cumulative = -0.0124914
DILUPBiCG:  Solving for epsilon, Initial residual = 0.006973, Final residual = 0.000173166, No Iterations 2
DILUPBiCG:  Solving for k, Initial residual = 0.0133283, Final residual = 0.000352963, No Iterations 2
ExecutionTime = 95.66 s  ClockTime = 100 s

Time = 57

DILUPBiCG:  Solving for Ux, Initial residual = 0.004956, Final residual = 9.65285e-05, No Iterations 2
DILUPBiCG:  Solving for Uy, Initial residual = 0.033569, Final residual = 0.000715426, No Iterations 2
DILUPBiCG:  Solving for Uz, Initial residual = 0.00904561, Final residual = 0.000448601, No Iterations 2
DICPCG:  Solving for p, Initial residual = 0.0224064, Final residual = 0.000223451, No Iterations 77
time step continuity errors : sum local = 0.00207265, global = 0.000106488, cumulative = -0.0123849
DILUPBiCG:  Solving for epsilon, Initial residual = 0.00681519, Final residual = 0.00017186, No Iterations 2
DILUPBiCG:  Solving for k, Initial residual = 0.0131547, Final residual = 0.000361005, No Iterations 2
ExecutionTime = 97.01 s  ClockTime = 102 s

Time = 58

DILUPBiCG:  Solving for Ux, Initial residual = 0.00487451, Final residual = 9.11849e-05, No Iterations 2
DILUPBiCG:  Solving for Uy, Initial residual = 0.0333795, Final residual = 0.000698847, No Iterations 2
DILUPBiCG:  Solving for Uz, Initial residual = 0.00900327, Final residual = 0.000440204, No Iterations 2
DICPCG:  Solving for p, Initial residual = 0.0209744, Final residual = 0.000196937, No Iterations 77
time step continuity errors : sum local = 0.00184197, global = 9.43106e-05, cumulative = -0.0122906
DILUPBiCG:  Solving for epsilon, Initial residual = 0.0066686, Final residual = 0.000177492, No Iterations 2
DILUPBiCG:  Solving for k, Initial residual = 0.0129986, Final residual = 0.000374097, No Iterations 2
ExecutionTime = 98.5 s  ClockTime = 103 s

Time = 59

DILUPBiCG:  Solving for Ux, Initial residual = 0.00479107, Final residual = 9.35366e-05, No Iterations 2
DILUPBiCG:  Solving for Uy, Initial residual = 0.0332208, Final residual = 0.000690201, No Iterations 2
DILUPBiCG:  Solving for Uz, Initial residual = 0.00897375, Final residual = 0.000423394, No Iterations 2
DICPCG:  Solving for p, Initial residual = 0.0208512, Final residual = 0.000193355, No Iterations 77
time step continuity errors : sum local = 0.00178194, global = 8.85579e-05, cumulative = -0.0122021
DILUPBiCG:  Solving for epsilon, Initial residual = 0.00652652, Final residual = 0.000190972, No Iterations 2
DILUPBiCG:  Solving for k, Initial residual = 0.0128338, Final residual = 0.000394519, No Iterations 2
ExecutionTime = 99.88 s  ClockTime = 104 s

Time = 60

DILUPBiCG:  Solving for Ux, Initial residual = 0.00471586, Final residual = 8.50747e-05, No Iterations 2
DILUPBiCG:  Solving for Uy, Initial residual = 0.0331119, Final residual = 0.000682769, No Iterations 2
DILUPBiCG:  Solving for Uz, Initial residual = 0.00894586, Final residual = 0.000445237, No Iterations 2
DICPCG:  Solving for p, Initial residual = 0.0200312, Final residual = 0.000184629, No Iterations 77
time step continuity errors : sum local = 0.00168101, global = 7.98999e-05, cumulative = -0.0121222
DILUPBiCG:  Solving for epsilon, Initial residual = 0.0063929, Final residual = 0.000225616, No Iterations 2
DILUPBiCG:  Solving for k, Initial residual = 0.012665, Final residual = 0.000416142, No Iterations 2
ExecutionTime = 102.17 s  ClockTime = 107 s

Time = 61

DILUPBiCG:  Solving for Ux, Initial residual = 0.00464448, Final residual = 8.95724e-05, No Iterations 2
DILUPBiCG:  Solving for Uy, Initial residual = 0.0330984, Final residual = 0.000680219, No Iterations 2
DILUPBiCG:  Solving for Uz, Initial residual = 0.00891925, Final residual = 0.000451652, No Iterations 2
DICPCG:  Solving for p, Initial residual = 0.0195881, Final residual = 0.000187662, No Iterations 79
time step continuity errors : sum local = 0.00171712, global = 9.97429e-05, cumulative = -0.0120224
DILUPBiCG:  Solving for epsilon, Initial residual = 0.00625745, Final residual = 0.00028174, No Iterations 2
DILUPBiCG:  Solving for k, Initial residual = 0.0125107, Final residual = 0.00043392, No Iterations 2
ExecutionTime = 103.79 s  ClockTime = 108 s

Time = 62

DILUPBiCG:  Solving for Ux, Initial residual = 0.00457596, Final residual = 8.2741e-05, No Iterations 2
DILUPBiCG:  Solving for Uy, Initial residual = 0.0331594, Final residual = 0.000697477, No Iterations 2
DILUPBiCG:  Solving for Uz, Initial residual = 0.00890233, Final residual = 0.00049666, No Iterations 2
DICPCG:  Solving for p, Initial residual = 0.0193712, Final residual = 0.000193645, No Iterations 78
time step continuity errors : sum local = 0.00176979, global = 8.57313e-05, cumulative = -0.0119367
DILUPBiCG:  Solving for epsilon, Initial residual = 0.00614357, Final residual = 0.000418465, No Iterations 2
DILUPBiCG:  Solving for k, Initial residual = 0.0123604, Final residual = 0.00044632, No Iterations 2
ExecutionTime = 105.03 s  ClockTime = 110 s

Time = 63

DILUPBiCG:  Solving for Ux, Initial residual = 0.00450863, Final residual = 8.90851e-05, No Iterations 2
DILUPBiCG:  Solving for Uy, Initial residual = 0.0334027, Final residual = 0.000679484, No Iterations 2
DILUPBiCG:  Solving for Uz, Initial residual = 0.00888614, Final residual = 0.000506696, No Iterations 2
DICPCG:  Solving for p, Initial residual = 0.019273, Final residual = 0.000176838, No Iterations 80
time step continuity errors : sum local = 0.00160438, global = 8.44934e-05, cumulative = -0.0118522
DILUPBiCG:  Solving for epsilon, Initial residual = 0.00606679, Final residual = 2.98113e-05, No Iterations 3
DILUPBiCG:  Solving for k, Initial residual = 0.0122045, Final residual = 0.000449452, No Iterations 2
ExecutionTime = 106.28 s  ClockTime = 111 s

Time = 64

DILUPBiCG:  Solving for Ux, Initial residual = 0.00445004, Final residual = 8.35603e-05, No Iterations 2
DILUPBiCG:  Solving for Uy, Initial residual = 0.0335356, Final residual = 0.000654858, No Iterations 2
DILUPBiCG:  Solving for Uz, Initial residual = 0.00885371, Final residual = 0.000550788, No Iterations 2
DICPCG:  Solving for p, Initial residual = 0.0186249, Final residual = 0.000183548, No Iterations 59
time step continuity errors : sum local = 0.00167686, global = 0.000216847, cumulative = -0.0116353
DILUPBiCG:  Solving for epsilon, Initial residual = 0.00593779, Final residual = 2.68279e-05, No Iterations 3
DILUPBiCG:  Solving for k, Initial residual = 0.0120425, Final residual = 0.00045099, No Iterations 2
ExecutionTime = 107.6 s  ClockTime = 112 s

Time = 65

DILUPBiCG:  Solving for Ux, Initial residual = 0.00438771, Final residual = 9.15019e-05, No Iterations 2
DILUPBiCG:  Solving for Uy, Initial residual = 0.033765, Final residual = 0.000614139, No Iterations 2
DILUPBiCG:  Solving for Uz, Initial residual = 0.00884966, Final residual = 0.00054591, No Iterations 2
DICPCG:  Solving for p, Initial residual = 0.0183727, Final residual = 0.000167893, No Iterations 81
time step continuity errors : sum local = 0.0015089, global = 7.41861e-05, cumulative = -0.0115612
DILUPBiCG:  Solving for epsilon, Initial residual = 0.00582966, Final residual = 2.16437e-05, No Iterations 3
DILUPBiCG:  Solving for k, Initial residual = 0.0119037, Final residual = 0.00043431, No Iterations 2
ExecutionTime = 109.17 s  ClockTime = 114 s

Time = 66

DILUPBiCG:  Solving for Ux, Initial residual = 0.00432648, Final residual = 8.15355e-05, No Iterations 2
DILUPBiCG:  Solving for Uy, Initial residual = 0.0339158, Final residual = 0.000603688, No Iterations 2
DILUPBiCG:  Solving for Uz, Initial residual = 0.0088405, Final residual = 0.000568147, No Iterations 2
DICPCG:  Solving for p, Initial residual = 0.0179323, Final residual = 0.000164476, No Iterations 80
time step continuity errors : sum local = 0.00150322, global = 5.63959e-05, cumulative = -0.0115048
DILUPBiCG:  Solving for epsilon, Initial residual = 0.00571994, Final residual = 1.92598e-05, No Iterations 3
DILUPBiCG:  Solving for k, Initial residual = 0.0117566, Final residual = 0.000405644, No Iterations 2
ExecutionTime = 111.23 s  ClockTime = 116 s

Time = 67

DILUPBiCG:  Solving for Ux, Initial residual = 0.00426859, Final residual = 8.64262e-05, No Iterations 2
DILUPBiCG:  Solving for Uy, Initial residual = 0.0340499, Final residual = 0.000594128, No Iterations 2
DILUPBiCG:  Solving for Uz, Initial residual = 0.00883554, Final residual = 0.000548466, No Iterations 2
DICPCG:  Solving for p, Initial residual = 0.017664, Final residual = 0.000175241, No Iterations 58
time step continuity errors : sum local = 0.00159174, global = 0.000239539, cumulative = -0.0112652
DILUPBiCG:  Solving for epsilon, Initial residual = 0.00563268, Final residual = 0.000470364, No Iterations 2
DILUPBiCG:  Solving for k, Initial residual = 0.0116173, Final residual = 0.000376172, No Iterations 2
ExecutionTime = 112.71 s  ClockTime = 118 s

Time = 68

DILUPBiCG:  Solving for Ux, Initial residual = 0.004216, Final residual = 8.0559e-05, No Iterations 2
DILUPBiCG:  Solving for Uy, Initial residual = 0.0340338, Final residual = 0.0006322, No Iterations 2
DILUPBiCG:  Solving for Uz, Initial residual = 0.00882083, Final residual = 0.000560259, No Iterations 2
DICPCG:  Solving for p, Initial residual = 0.0175435, Final residual = 0.00016408, No Iterations 80
time step continuity errors : sum local = 0.00147919, global = 3.54682e-05, cumulative = -0.0112298
DILUPBiCG:  Solving for epsilon, Initial residual = 0.00549201, Final residual = 0.000309399, No Iterations 2
DILUPBiCG:  Solving for k, Initial residual = 0.0114689, Final residual = 0.000357567, No Iterations 2
ExecutionTime = 115.64 s  ClockTime = 121 s

Time = 69

DILUPBiCG:  Solving for Ux, Initial residual = 0.00415976, Final residual = 8.10927e-05, No Iterations 2
DILUPBiCG:  Solving for Uy, Initial residual = 0.0340616, Final residual = 0.000812597, No Iterations 2
DILUPBiCG:  Solving for Uz, Initial residual = 0.00881299, Final residual = 0.000534003, No Iterations 2
DICPCG:  Solving for p, Initial residual = 0.017254, Final residual = 0.000162736, No Iterations 59
time step continuity errors : sum local = 0.00147699, global = 0.000227223, cumulative = -0.0110025
DILUPBiCG:  Solving for epsilon, Initial residual = 0.0053752, Final residual = 0.000260988, No Iterations 2
DILUPBiCG:  Solving for k, Initial residual = 0.0113471, Final residual = 0.000338328, No Iterations 2
ExecutionTime = 117.41 s  ClockTime = 123 s

Time = 70

DILUPBiCG:  Solving for Ux, Initial residual = 0.00411058, Final residual = 7.75325e-05, No Iterations 2
DILUPBiCG:  Solving for Uy, Initial residual = 0.0341437, Final residual = 0.00128648, No Iterations 2
DILUPBiCG:  Solving for Uz, Initial residual = 0.00881701, Final residual = 0.000535521, No Iterations 2
DICPCG:  Solving for p, Initial residual = 0.0174518, Final residual = 0.000168252, No Iterations 80
time step continuity errors : sum local = 0.0015178, global = 1.72813e-05, cumulative = -0.0109853
DILUPBiCG:  Solving for epsilon, Initial residual = 0.00526551, Final residual = 0.000219721, No Iterations 2
DILUPBiCG:  Solving for k, Initial residual = 0.0112136, Final residual = 0.000311626, No Iterations 2
ExecutionTime = 119.79 s  ClockTime = 125 s

Time = 71

DILUPBiCG:  Solving for Ux, Initial residual = 0.00406242, Final residual = 7.84672e-05, No Iterations 2
DILUPBiCG:  Solving for Uy, Initial residual = 0.034257, Final residual = 0.00223259, No Iterations 2
DILUPBiCG:  Solving for Uz, Initial residual = 0.00881583, Final residual = 0.000508301, No Iterations 2
DICPCG:  Solving for p, Initial residual = 0.0173955, Final residual = 0.000157809, No Iterations 59
time step continuity errors : sum local = 0.00143588, global = 0.000223839, cumulative = -0.0107614
DILUPBiCG:  Solving for epsilon, Initial residual = 0.00517128, Final residual = 0.000179482, No Iterations 2
DILUPBiCG:  Solving for k, Initial residual = 0.0111, Final residual = 0.000277913, No Iterations 2
ExecutionTime = 121.2 s  ClockTime = 127 s

Time = 72

DILUPBiCG:  Solving for Ux, Initial residual = 0.00401524, Final residual = 7.66301e-05, No Iterations 2
DILUPBiCG:  Solving for Uy, Initial residual = 0.0344533, Final residual = 0.000554498, No Iterations 3
DILUPBiCG:  Solving for Uz, Initial residual = 0.00883436, Final residual = 0.000507959, No Iterations 2
DICPCG:  Solving for p, Initial residual = 0.0173701, Final residual = 0.000169662, No Iterations 60
time step continuity errors : sum local = 0.00153858, global = 0.000223739, cumulative = -0.0105377
DILUPBiCG:  Solving for epsilon, Initial residual = 0.00507183, Final residual = 0.000157714, No Iterations 2
DILUPBiCG:  Solving for k, Initial residual = 0.0110005, Final residual = 0.000265108, No Iterations 2
ExecutionTime = 122.35 s  ClockTime = 128 s

Time = 73

DILUPBiCG:  Solving for Ux, Initial residual = 0.00396858, Final residual = 7.33559e-05, No Iterations 2
DILUPBiCG:  Solving for Uy, Initial residual = 0.0343334, Final residual = 0.000270334, No Iterations 3
DILUPBiCG:  Solving for Uz, Initial residual = 0.00886471, Final residual = 0.000484516, No Iterations 2
DICPCG:  Solving for p, Initial residual = 0.0171236, Final residual = 0.000163177, No Iterations 81
time step continuity errors : sum local = 0.00149768, global = -1.12365e-05, cumulative = -0.0105489
DILUPBiCG:  Solving for epsilon, Initial residual = 0.00498699, Final residual = 0.00014567, No Iterations 2
DILUPBiCG:  Solving for k, Initial residual = 0.0109217, Final residual = 0.000237909, No Iterations 2
ExecutionTime = 123.61 s  ClockTime = 129 s

Time = 74

DILUPBiCG:  Solving for Ux, Initial residual = 0.00392077, Final residual = 7.20626e-05, No Iterations 2
DILUPBiCG:  Solving for Uy, Initial residual = 0.0340796, Final residual = 0.000230557, No Iterations 3
DILUPBiCG:  Solving for Uz, Initial residual = 0.00888314, Final residual = 0.000492216, No Iterations 2
DICPCG:  Solving for p, Initial residual = 0.0169198, Final residual = 0.000168828, No Iterations 47
time step continuity errors : sum local = 0.00154777, global = 0.000235257, cumulative = -0.0103137
DILUPBiCG:  Solving for epsilon, Initial residual = 0.00490652, Final residual = 0.000136637, No Iterations 2
DILUPBiCG:  Solving for k, Initial residual = 0.0108354, Final residual = 0.000210487, No Iterations 2
ExecutionTime = 124.7 s  ClockTime = 130 s

Time = 75

DILUPBiCG:  Solving for Ux, Initial residual = 0.00388044, Final residual = 7.03271e-05, No Iterations 2
DILUPBiCG:  Solving for Uy, Initial residual = 0.0339315, Final residual = 0.000155347, No Iterations 3
DILUPBiCG:  Solving for Uz, Initial residual = 0.00890966, Final residual = 0.000501635, No Iterations 2
DICPCG:  Solving for p, Initial residual = 0.0165254, Final residual = 0.000162808, No Iterations 47
time step continuity errors : sum local = 0.00150464, global = 0.000220932, cumulative = -0.0100927
DILUPBiCG:  Solving for epsilon, Initial residual = 0.00482923, Final residual = 0.000129994, No Iterations 2
DILUPBiCG:  Solving for k, Initial residual = 0.0107567, Final residual = 0.000195763, No Iterations 2
ExecutionTime = 125.81 s  ClockTime = 132 s

Time = 76

DILUPBiCG:  Solving for Ux, Initial residual = 0.00384083, Final residual = 6.83929e-05, No Iterations 2
DILUPBiCG:  Solving for Uy, Initial residual = 0.0337861, Final residual = 0.000141659, No Iterations 3
DILUPBiCG:  Solving for Uz, Initial residual = 0.00894988, Final residual = 0.000526447, No Iterations 2
DICPCG:  Solving for p, Initial residual = 0.0167788, Final residual = 0.00015692, No Iterations 57
time step continuity errors : sum local = 0.00145119, global = 0.000233286, cumulative = -0.00985944
DILUPBiCG:  Solving for epsilon, Initial residual = 0.00476162, Final residual = 0.000126987, No Iterations 2
DILUPBiCG:  Solving for k, Initial residual = 0.0107016, Final residual = 0.000182152, No Iterations 2
ExecutionTime = 127.97 s  ClockTime = 134 s

Time = 77

DILUPBiCG:  Solving for Ux, Initial residual = 0.00380092, Final residual = 6.784e-05, No Iterations 2
DILUPBiCG:  Solving for Uy, Initial residual = 0.0336616, Final residual = 0.000118926, No Iterations 3
DILUPBiCG:  Solving for Uz, Initial residual = 0.00897852, Final residual = 0.000525778, No Iterations 2
DICPCG:  Solving for p, Initial residual = 0.0172193, Final residual = 0.000161049, No Iterations 58
time step continuity errors : sum local = 0.0014667, global = 0.000256842, cumulative = -0.0096026
DILUPBiCG:  Solving for epsilon, Initial residual = 0.00470833, Final residual = 0.000120122, No Iterations 2
DILUPBiCG:  Solving for k, Initial residual = 0.0106428, Final residual = 0.000187194, No Iterations 2
ExecutionTime = 129.96 s  ClockTime = 136 s

Time = 78

DILUPBiCG:  Solving for Ux, Initial residual = 0.00375897, Final residual = 6.58482e-05, No Iterations 2
DILUPBiCG:  Solving for Uy, Initial residual = 0.0334162, Final residual = 0.00323779, No Iterations 2
DILUPBiCG:  Solving for Uz, Initial residual = 0.00900223, Final residual = 0.000552538, No Iterations 2
DICPCG:  Solving for p, Initial residual = 0.0168314, Final residual = 0.000160162, No Iterations 58
time step continuity errors : sum local = 0.00147734, global = 0.000253114, cumulative = -0.00934948
DILUPBiCG:  Solving for epsilon, Initial residual = 0.00464744, Final residual = 0.000118561, No Iterations 2
DILUPBiCG:  Solving for k, Initial residual = 0.0105886, Final residual = 0.000224945, No Iterations 2
ExecutionTime = 131.4 s  ClockTime = 137 s

Time = 79

DILUPBiCG:  Solving for Ux, Initial residual = 0.00372438, Final residual = 6.5301e-05, No Iterations 2
DILUPBiCG:  Solving for Uy, Initial residual = 0.0328665, Final residual = 9.53664e-05, No Iterations 3
DILUPBiCG:  Solving for Uz, Initial residual = 0.00904116, Final residual = 0.000549367, No Iterations 2
DICPCG:  Solving for p, Initial residual = 0.0173527, Final residual = 0.000166601, No Iterations 59
time step continuity errors : sum local = 0.00150582, global = 0.000250502, cumulative = -0.00909898
DILUPBiCG:  Solving for epsilon, Initial residual = 0.00458489, Final residual = 0.000108265, No Iterations 2
DILUPBiCG:  Solving for k, Initial residual = 0.0105482, Final residual = 0.000320945, No Iterations 2
ExecutionTime = 132.67 s  ClockTime = 139 s

Time = 80

DILUPBiCG:  Solving for Ux, Initial residual = 0.00368053, Final residual = 6.25856e-05, No Iterations 2
DILUPBiCG:  Solving for Uy, Initial residual = 0.0324393, Final residual = 0.00186604, No Iterations 2
DILUPBiCG:  Solving for Uz, Initial residual = 0.00907298, Final residual = 0.000550731, No Iterations 2
DICPCG:  Solving for p, Initial residual = 0.0170519, Final residual = 0.000167089, No Iterations 49
time step continuity errors : sum local = 0.00151439, global = 0.000227114, cumulative = -0.00887187
DILUPBiCG:  Solving for epsilon, Initial residual = 0.00453034, Final residual = 0.000103419, No Iterations 2
DILUPBiCG:  Solving for k, Initial residual = 0.0105093, Final residual = 0.000491734, No Iterations 2
ExecutionTime = 134.15 s  ClockTime = 140 s

Time = 81

DILUPBiCG:  Solving for Ux, Initial residual = 0.00364462, Final residual = 6.12579e-05, No Iterations 2
DILUPBiCG:  Solving for Uy, Initial residual = 0.0323076, Final residual = 0.000535109, No Iterations 2
DILUPBiCG:  Solving for Uz, Initial residual = 0.00913048, Final residual = 0.000527307, No Iterations 2
DICPCG:  Solving for p, Initial residual = 0.0174028, Final residual = 0.00016798, No Iterations 41
time step continuity errors : sum local = 0.00150695, global = 0.000262097, cumulative = -0.00860977
DILUPBiCG:  Solving for epsilon, Initial residual = 0.00448247, Final residual = 9.55174e-05, No Iterations 2
DILUPBiCG:  Solving for k, Initial residual = 0.0104705, Final residual = 2.37023e-05, No Iterations 3
ExecutionTime = 135.19 s  ClockTime = 141 s

Time = 82

DILUPBiCG:  Solving for Ux, Initial residual = 0.00360557, Final residual = 5.96478e-05, No Iterations 2
DILUPBiCG:  Solving for Uy, Initial residual = 0.031953, Final residual = 0.000522692, No Iterations 2
DILUPBiCG:  Solving for Uz, Initial residual = 0.00917652, Final residual = 0.000532259, No Iterations 2
DICPCG:  Solving for p, Initial residual = 0.0172572, Final residual = 0.000168741, No Iterations 41
time step continuity errors : sum local = 0.00151674, global = 0.000221836, cumulative = -0.00838794
DILUPBiCG:  Solving for epsilon, Initial residual = 0.00445531, Final residual = 9.12184e-05, No Iterations 2
DILUPBiCG:  Solving for k, Initial residual = 0.0104358, Final residual = 2.13469e-05, No Iterations 3
ExecutionTime = 136.3 s  ClockTime = 142 s

Time = 83

DILUPBiCG:  Solving for Ux, Initial residual = 0.00356912, Final residual = 5.82891e-05, No Iterations 2
DILUPBiCG:  Solving for Uy, Initial residual = 0.0313674, Final residual = 0.000487995, No Iterations 2
DILUPBiCG:  Solving for Uz, Initial residual = 0.00924415, Final residual = 0.000505882, No Iterations 2
DICPCG:  Solving for p, Initial residual = 0.0177153, Final residual = 0.000167435, No Iterations 41
time step continuity errors : sum local = 0.00147771, global = 0.000157546, cumulative = -0.00823039
DILUPBiCG:  Solving for epsilon, Initial residual = 0.00441572, Final residual = 8.53008e-05, No Iterations 2
DILUPBiCG:  Solving for k, Initial residual = 0.0104001, Final residual = 0.000880847, No Iterations 2
ExecutionTime = 138.13 s  ClockTime = 144 s

Time = 84

DILUPBiCG:  Solving for Ux, Initial residual = 0.00353504, Final residual = 5.60107e-05, No Iterations 2
DILUPBiCG:  Solving for Uy, Initial residual = 0.0307116, Final residual = 0.000452063, No Iterations 2
DILUPBiCG:  Solving for Uz, Initial residual = 0.00931742, Final residual = 0.000496428, No Iterations 2
DICPCG:  Solving for p, Initial residual = 0.017687, Final residual = 0.000167414, No Iterations 41
time step continuity errors : sum local = 0.00148619, global = 4.05172e-05, cumulative = -0.00818987
DILUPBiCG:  Solving for epsilon, Initial residual = 0.00441753, Final residual = 8.46973e-05, No Iterations 2
DILUPBiCG:  Solving for k, Initial residual = 0.0103521, Final residual = 0.000480019, No Iterations 2
ExecutionTime = 140.13 s  ClockTime = 146 s

Time = 85

DILUPBiCG:  Solving for Ux, Initial residual = 0.00350127, Final residual = 5.54548e-05, No Iterations 2
DILUPBiCG:  Solving for Uy, Initial residual = 0.0299724, Final residual = 0.000430654, No Iterations 2
DILUPBiCG:  Solving for Uz, Initial residual = 0.00938145, Final residual = 0.000467917, No Iterations 2
DICPCG:  Solving for p, Initial residual = 0.0181299, Final residual = 0.000172999, No Iterations 41
time step continuity errors : sum local = 0.00150925, global = -4.99377e-05, cumulative = -0.00823981
DILUPBiCG:  Solving for epsilon, Initial residual = 0.0044013, Final residual = 8.0265e-05, No Iterations 2
DILUPBiCG:  Solving for k, Initial residual = 0.0103028, Final residual = 0.00101775, No Iterations 1
ExecutionTime = 142.33 s  ClockTime = 149 s

Time = 86

DILUPBiCG:  Solving for Ux, Initial residual = 0.003463, Final residual = 5.46233e-05, No Iterations 2
DILUPBiCG:  Solving for Uy, Initial residual = 0.0291616, Final residual = 0.000420709, No Iterations 2
DILUPBiCG:  Solving for Uz, Initial residual = 0.00942476, Final residual = 0.000449067, No Iterations 2
DICPCG:  Solving for p, Initial residual = 0.0179436, Final residual = 0.000170656, No Iterations 41
time step continuity errors : sum local = 0.00148794, global = -7.5808e-05, cumulative = -0.00831562
DILUPBiCG:  Solving for epsilon, Initial residual = 0.00432741, Final residual = 7.99979e-05, No Iterations 2
DILUPBiCG:  Solving for k, Initial residual = 0.0102727, Final residual = 0.000968994, No Iterations 1
ExecutionTime = 143.44 s  ClockTime = 150 s

Time = 87

DILUPBiCG:  Solving for Ux, Initial residual = 0.00342738, Final residual = 5.29566e-05, No Iterations 2
DILUPBiCG:  Solving for Uy, Initial residual = 0.0282547, Final residual = 0.000731945, No Iterations 2
DILUPBiCG:  Solving for Uz, Initial residual = 0.00948317, Final residual = 0.000431876, No Iterations 2
DICPCG:  Solving for p, Initial residual = 0.0181578, Final residual = 0.000165238, No Iterations 41
time step continuity errors : sum local = 0.00142194, global = -1.54892e-05, cumulative = -0.00833111
DILUPBiCG:  Solving for epsilon, Initial residual = 0.00427339, Final residual = 7.54672e-05, No Iterations 2
DILUPBiCG:  Solving for k, Initial residual = 0.0102335, Final residual = 0.00094789, No Iterations 1
ExecutionTime = 144.44 s  ClockTime = 151 s

Time = 88

DILUPBiCG:  Solving for Ux, Initial residual = 0.00339423, Final residual = 5.14593e-05, No Iterations 2
DILUPBiCG:  Solving for Uy, Initial residual = 0.0272927, Final residual = 0.000436143, No Iterations 2
DILUPBiCG:  Solving for Uz, Initial residual = 0.00952406, Final residual = 0.000431694, No Iterations 2
DICPCG:  Solving for p, Initial residual = 0.017896, Final residual = 0.000162482, No Iterations 41
time step continuity errors : sum local = 0.00140493, global = 9.63358e-05, cumulative = -0.00823477
DILUPBiCG:  Solving for epsilon, Initial residual = 0.00421999, Final residual = 7.62193e-05, No Iterations 2
DILUPBiCG:  Solving for k, Initial residual = 0.0101944, Final residual = 0.00093477, No Iterations 1
ExecutionTime = 145.49 s  ClockTime = 152 s

Time = 89

DILUPBiCG:  Solving for Ux, Initial residual = 0.00336476, Final residual = 5.04598e-05, No Iterations 2
DILUPBiCG:  Solving for Uy, Initial residual = 0.0263119, Final residual = 0.000393519, No Iterations 2
DILUPBiCG:  Solving for Uz, Initial residual = 0.00955947, Final residual = 0.00044153, No Iterations 2
DICPCG:  Solving for p, Initial residual = 0.0181807, Final residual = 0.000179712, No Iterations 41
time step continuity errors : sum local = 0.00153205, global = 0.000266141, cumulative = -0.00796863
DILUPBiCG:  Solving for epsilon, Initial residual = 0.00418159, Final residual = 7.28587e-05, No Iterations 2
DILUPBiCG:  Solving for k, Initial residual = 0.0101437, Final residual = 0.000931858, No Iterations 1
ExecutionTime = 148.18 s  ClockTime = 155 s

Time = 90

DILUPBiCG:  Solving for Ux, Initial residual = 0.00333907, Final residual = 4.9454e-05, No Iterations 2
DILUPBiCG:  Solving for Uy, Initial residual = 0.0253741, Final residual = 0.000345114, No Iterations 2
DILUPBiCG:  Solving for Uz, Initial residual = 0.00960442, Final residual = 0.000444238, No Iterations 2
DICPCG:  Solving for p, Initial residual = 0.0182959, Final residual = 0.000175021, No Iterations 60
time step continuity errors : sum local = 0.00149177, global = 0.000208452, cumulative = -0.00776018
DILUPBiCG:  Solving for epsilon, Initial residual = 0.00414012, Final residual = 7.37726e-05, No Iterations 2
DILUPBiCG:  Solving for k, Initial residual = 0.01009, Final residual = 0.000932225, No Iterations 1
ExecutionTime = 151.46 s  ClockTime = 158 s

Time = 91

DILUPBiCG:  Solving for Ux, Initial residual = 0.00331295, Final residual = 4.83321e-05, No Iterations 2
DILUPBiCG:  Solving for Uy, Initial residual = 0.0245911, Final residual = 0.000380011, No Iterations 2
DILUPBiCG:  Solving for Uz, Initial residual = 0.00964531, Final residual = 0.000442869, No Iterations 2
DICPCG:  Solving for p, Initial residual = 0.0188667, Final residual = 0.000169177, No Iterations 84
time step continuity errors : sum local = 0.00142879, global = 3.00549e-05, cumulative = -0.00773012
DILUPBiCG:  Solving for epsilon, Initial residual = 0.00410656, Final residual = 6.96102e-05, No Iterations 2
DILUPBiCG:  Solving for k, Initial residual = 0.0100383, Final residual = 0.000947765, No Iterations 1
ExecutionTime = 154.04 s  ClockTime = 161 s

Time = 92

DILUPBiCG:  Solving for Ux, Initial residual = 0.00328724, Final residual = 4.73338e-05, No Iterations 2
DILUPBiCG:  Solving for Uy, Initial residual = 0.0239751, Final residual = 0.00031744, No Iterations 2
DILUPBiCG:  Solving for Uz, Initial residual = 0.00969837, Final residual = 0.000446385, No Iterations 2
DICPCG:  Solving for p, Initial residual = 0.0193226, Final residual = 0.000175436, No Iterations 84
time step continuity errors : sum local = 0.00149288, global = 3.34603e-05, cumulative = -0.00769666
DILUPBiCG:  Solving for epsilon, Initial residual = 0.00407863, Final residual = 6.85141e-05, No Iterations 2
DILUPBiCG:  Solving for k, Initial residual = 0.00999043, Final residual = 0.000970466, No Iterations 1
ExecutionTime = 155.28 s  ClockTime = 162 s

Time = 93

DILUPBiCG:  Solving for Ux, Initial residual = 0.00326038, Final residual = 4.70181e-05, No Iterations 2
DILUPBiCG:  Solving for Uy, Initial residual = 0.0235074, Final residual = 0.00031752, No Iterations 2
DILUPBiCG:  Solving for Uz, Initial residual = 0.00977709, Final residual = 0.00044181, No Iterations 2
DICPCG:  Solving for p, Initial residual = 0.0203261, Final residual = 0.000198683, No Iterations 41
time step continuity errors : sum local = 0.00167816, global = 0.000408278, cumulative = -0.00728839
DILUPBiCG:  Solving for epsilon, Initial residual = 0.0040472, Final residual = 6.51271e-05, No Iterations 2
DILUPBiCG:  Solving for k, Initial residual = 0.00994944, Final residual = 0.000142875, No Iterations 2
ExecutionTime = 156.29 s  ClockTime = 163 s

Time = 94

DILUPBiCG:  Solving for Ux, Initial residual = 0.00323919, Final residual = 4.61672e-05, No Iterations 2
DILUPBiCG:  Solving for Uy, Initial residual = 0.0232466, Final residual = 0.000302803, No Iterations 2
DILUPBiCG:  Solving for Uz, Initial residual = 0.00990762, Final residual = 0.000438418, No Iterations 2
DICPCG:  Solving for p, Initial residual = 0.0208747, Final residual = 0.000203996, No Iterations 41
time step continuity errors : sum local = 0.00174201, global = 0.000395023, cumulative = -0.00689336
DILUPBiCG:  Solving for epsilon, Initial residual = 0.0041053, Final residual = 6.35363e-05, No Iterations 2
DILUPBiCG:  Solving for k, Initial residual = 0.00989792, Final residual = 0.000136287, No Iterations 2
ExecutionTime = 157.48 s  ClockTime = 164 s

Time = 95

DILUPBiCG:  Solving for Ux, Initial residual = 0.00321624, Final residual = 4.61145e-05, No Iterations 2
DILUPBiCG:  Solving for Uy, Initial residual = 0.0230272, Final residual = 0.00227862, No Iterations 1
DILUPBiCG:  Solving for Uz, Initial residual = 0.0100383, Final residual = 0.000425335, No Iterations 2
DICPCG:  Solving for p, Initial residual = 0.0216737, Final residual = 0.000204011, No Iterations 60
time step continuity errors : sum local = 0.00171572, global = 0.000194054, cumulative = -0.00669931
DILUPBiCG:  Solving for epsilon, Initial residual = 0.00414504, Final residual = 6.20517e-05, No Iterations 2
DILUPBiCG:  Solving for k, Initial residual = 0.00984047, Final residual = 0.000127796, No Iterations 2
ExecutionTime = 158.57 s  ClockTime = 165 s

Time = 96

DILUPBiCG:  Solving for Ux, Initial residual = 0.00319856, Final residual = 4.48671e-05, No Iterations 2
DILUPBiCG:  Solving for Uy, Initial residual = 0.0231078, Final residual = 0.00224477, No Iterations 1
DILUPBiCG:  Solving for Uz, Initial residual = 0.0101334, Final residual = 0.00101273, No Iterations 1
DICPCG:  Solving for p, Initial residual = 0.0220107, Final residual = 0.000201032, No Iterations 86
time step continuity errors : sum local = 0.00170992, global = 2.92556e-05, cumulative = -0.00667005
DILUPBiCG:  Solving for epsilon, Initial residual = 0.00415447, Final residual = 6.06311e-05, No Iterations 2
DILUPBiCG:  Solving for k, Initial residual = 0.00976772, Final residual = 0.000120862, No Iterations 2
ExecutionTime = 160.27 s  ClockTime = 167 s

Time = 97

DILUPBiCG:  Solving for Ux, Initial residual = 0.0031373, Final residual = 4.32825e-05, No Iterations 2
DILUPBiCG:  Solving for Uy, Initial residual = 0.0229643, Final residual = 0.000300138, No Iterations 2
DILUPBiCG:  Solving for Uz, Initial residual = 0.010419, Final residual = 0.000350036, No Iterations 2
DICPCG:  Solving for p, Initial residual = 0.0216117, Final residual = 0.000215405, No Iterations 41
time step continuity errors : sum local = 0.00182817, global = 0.000429387, cumulative = -0.00624067
DILUPBiCG:  Solving for epsilon, Initial residual = 0.00417388, Final residual = 5.87029e-05, No Iterations 2
DILUPBiCG:  Solving for k, Initial residual = 0.00969974, Final residual = 0.000114547, No Iterations 2
ExecutionTime = 161.82 s  ClockTime = 169 s

Time = 98

DILUPBiCG:  Solving for Ux, Initial residual = 0.00312739, Final residual = 4.27647e-05, No Iterations 2
DILUPBiCG:  Solving for Uy, Initial residual = 0.0227054, Final residual = 0.00220475, No Iterations 1
DILUPBiCG:  Solving for Uz, Initial residual = 0.0105121, Final residual = 0.000343886, No Iterations 2
DICPCG:  Solving for p, Initial residual = 0.0217313, Final residual = 0.000197637, No Iterations 45
time step continuity errors : sum local = 0.00168112, global = 0.000322767, cumulative = -0.0059179
DILUPBiCG:  Solving for epsilon, Initial residual = 0.00417908, Final residual = 5.80118e-05, No Iterations 2
DILUPBiCG:  Solving for k, Initial residual = 0.00962083, Final residual = 0.000109148, No Iterations 2
ExecutionTime = 164.03 s  ClockTime = 171 s

Time = 99

DILUPBiCG:  Solving for Ux, Initial residual = 0.00313953, Final residual = 4.27958e-05, No Iterations 2
DILUPBiCG:  Solving for Uy, Initial residual = 0.0225678, Final residual = 0.00221989, No Iterations 1
DILUPBiCG:  Solving for Uz, Initial residual = 0.0104764, Final residual = 0.000360255, No Iterations 2
DICPCG:  Solving for p, Initial residual = 0.0222047, Final residual = 0.000217307, No Iterations 62
time step continuity errors : sum local = 0.00184801, global = 0.000255064, cumulative = -0.00566284
DILUPBiCG:  Solving for epsilon, Initial residual = 0.00417932, Final residual = 5.83797e-05, No Iterations 2
DILUPBiCG:  Solving for k, Initial residual = 0.00952793, Final residual = 0.000104451, No Iterations 2
ExecutionTime = 165.58 s  ClockTime = 172 s

Time = 100

[...]
DILUPBiCG:  Solving for k, Initial residual = 0.000752568, Final residual = 5.97835e-05, No Iterations 1
ExecutionTime = 1148.63 s  ClockTime = 1226 s

Time = 976

DILUPBiCG:  Solving for Ux, Initial residual = 0.00016947, Final residual = 1.55113e-05, No Iterations 1
DILUPBiCG:  Solving for Uy, Initial residual = 0.0132224, Final residual = 0.00121355, No Iterations 1
DILUPBiCG:  Solving for Uz, Initial residual = 0.00138899, Final residual = 0.000123207, No Iterations 1
DICPCG:  Solving for p, Initial residual = 0.00356293, Final residual = 3.36264e-05, No Iterations 13
time step continuity errors : sum local = 0.000422148, global = 4.07429e-05, cumulative = -0.000722583
DILUPBiCG:  Solving for epsilon, Initial residual = 0.00117661, Final residual = 1.80546e-06, No Iterations 3
DILUPBiCG:  Solving for k, Initial residual = 0.000713534, Final residual = 3.0127e-06, No Iterations 2
ExecutionTime = 1149.96 s  ClockTime = 1227 s

Time = 977

DILUPBiCG:  Solving for Ux, Initial residual = 0.000174518, Final residual = 1.01609e-05, No Iterations 1
DILUPBiCG:  Solving for Uy, Initial residual = 0.0129574, Final residual = 0.000163281, No Iterations 2
DILUPBiCG:  Solving for Uz, Initial residual = 0.00139221, Final residual = 6.0361e-05, No Iterations 2
DICPCG:  Solving for p, Initial residual = 0.00362481, Final residual = 3.46812e-05, No Iterations 17
time step continuity errors : sum local = 0.000438462, global = 3.41496e-05, cumulative = -0.000688433
DILUPBiCG:  Solving for epsilon, Initial residual = 0.00119105, Final residual = 9.58418e-05, No Iterations 1
DILUPBiCG:  Solving for k, Initial residual = 0.000734398, Final residual = 6.76433e-05, No Iterations 1
ExecutionTime = 1150.83 s  ClockTime = 1228 s

Time = 978

DILUPBiCG:  Solving for Ux, Initial residual = 0.00017275, Final residual = 1.28851e-06, No Iterations 2
DILUPBiCG:  Solving for Uy, Initial residual = 0.0129628, Final residual = 0.00115216, No Iterations 1
DILUPBiCG:  Solving for Uz, Initial residual = 0.00141817, Final residual = 0.000115989, No Iterations 1
DICPCG:  Solving for p, Initial residual = 0.0035814, Final residual = 3.45394e-05, No Iterations 17
time step continuity errors : sum local = 0.000433968, global = 3.18095e-05, cumulative = -0.000656624
DILUPBiCG:  Solving for epsilon, Initial residual = 0.00115067, Final residual = 9.16084e-05, No Iterations 1
DILUPBiCG:  Solving for k, Initial residual = 0.000693676, Final residual = 2.40751e-05, No Iterations 2
ExecutionTime = 1151.66 s  ClockTime = 1229 s

Time = 979

DILUPBiCG:  Solving for Ux, Initial residual = 0.000168617, Final residual = 1.07858e-05, No Iterations 1
DILUPBiCG:  Solving for Uy, Initial residual = 0.0127824, Final residual = 0.000227309, No Iterations 2
DILUPBiCG:  Solving for Uz, Initial residual = 0.00137741, Final residual = 2.02776e-06, No Iterations 3
DICPCG:  Solving for p, Initial residual = 0.00354271, Final residual = 3.20262e-05, No Iterations 21
time step continuity errors : sum local = 0.00040535, global = 1.63581e-05, cumulative = -0.000640266
DILUPBiCG:  Solving for epsilon, Initial residual = 0.00112399, Final residual = 7.85479e-05, No Iterations 1
DILUPBiCG:  Solving for k, Initial residual = 0.000708702, Final residual = 1.04462e-05, No Iterations 2
ExecutionTime = 1152.64 s  ClockTime = 1230 s

Time = 980

DILUPBiCG:  Solving for Ux, Initial residual = 0.000173038, Final residual = 1.5414e-06, No Iterations 2
DILUPBiCG:  Solving for Uy, Initial residual = 0.0132415, Final residual = 0.00109453, No Iterations 1
DILUPBiCG:  Solving for Uz, Initial residual = 0.0014124, Final residual = 0.000121693, No Iterations 1
DICPCG:  Solving for p, Initial residual = 0.00354142, Final residual = 3.26696e-05, No Iterations 15
time step continuity errors : sum local = 0.000411574, global = 2.46628e-05, cumulative = -0.000615603
DILUPBiCG:  Solving for epsilon, Initial residual = 0.0011821, Final residual = 7.83748e-05, No Iterations 1
DILUPBiCG:  Solving for k, Initial residual = 0.000748773, Final residual = 1.41039e-05, No Iterations 2
ExecutionTime = 1153.48 s  ClockTime = 1231 s

Time = 981

DILUPBiCG:  Solving for Ux, Initial residual = 0.000170013, Final residual = 5.22299e-06, No Iterations 2
DILUPBiCG:  Solving for Uy, Initial residual = 0.0132015, Final residual = 0.00017988, No Iterations 2
DILUPBiCG:  Solving for Uz, Initial residual = 0.00141397, Final residual = 0.000101477, No Iterations 1
DICPCG:  Solving for p, Initial residual = 0.00361846, Final residual = 3.57742e-05, No Iterations 16
time step continuity errors : sum local = 0.000450788, global = 1.38169e-05, cumulative = -0.000601786
DILUPBiCG:  Solving for epsilon, Initial residual = 0.00115757, Final residual = 3.25486e-05, No Iterations 2
DILUPBiCG:  Solving for k, Initial residual = 0.000738016, Final residual = 5.88148e-05, No Iterations 1
ExecutionTime = 1154.54 s  ClockTime = 1232 s

Time = 982

DILUPBiCG:  Solving for Ux, Initial residual = 0.000171119, Final residual = 3.05873e-06, No Iterations 2
DILUPBiCG:  Solving for Uy, Initial residual = 0.0135436, Final residual = 0.000128083, No Iterations 2
DILUPBiCG:  Solving for Uz, Initial residual = 0.00141349, Final residual = 0.000112188, No Iterations 1
DICPCG:  Solving for p, Initial residual = 0.0036541, Final residual = 3.58601e-05, No Iterations 10
time step continuity errors : sum local = 0.000451869, global = 1.8022e-06, cumulative = -0.000599984
DILUPBiCG:  Solving for epsilon, Initial residual = 0.00120618, Final residual = 1.9008e-05, No Iterations 2
DILUPBiCG:  Solving for k, Initial residual = 0.000709211, Final residual = 3.02131e-06, No Iterations 2
ExecutionTime = 1155.52 s  ClockTime = 1233 s

Time = 983

DILUPBiCG:  Solving for Ux, Initial residual = 0.000168853, Final residual = 2.28561e-07, No Iterations 3
DILUPBiCG:  Solving for Uy, Initial residual = 0.0136265, Final residual = 0.000174264, No Iterations 2
DILUPBiCG:  Solving for Uz, Initial residual = 0.00139132, Final residual = 1.84006e-06, No Iterations 3
DICPCG:  Solving for p, Initial residual = 0.00350658, Final residual = 3.37254e-05, No Iterations 24
time step continuity errors : sum local = 0.000424382, global = -2.40567e-05, cumulative = -0.000624041
DILUPBiCG:  Solving for epsilon, Initial residual = 0.0011927, Final residual = 6.6332e-05, No Iterations 1
DILUPBiCG:  Solving for k, Initial residual = 0.00072921, Final residual = 5.09446e-05, No Iterations 1
ExecutionTime = 1156.46 s  ClockTime = 1234 s

Time = 984

DILUPBiCG:  Solving for Ux, Initial residual = 0.000171996, Final residual = 1.14933e-05, No Iterations 1
DILUPBiCG:  Solving for Uy, Initial residual = 0.0134371, Final residual = 0.00123931, No Iterations 1
DILUPBiCG:  Solving for Uz, Initial residual = 0.00139375, Final residual = 0.00011776, No Iterations 1
DICPCG:  Solving for p, Initial residual = 0.00358927, Final residual = 3.4699e-05, No Iterations 14
time step continuity errors : sum local = 0.000437206, global = -5.03773e-05, cumulative = -0.000674418
DILUPBiCG:  Solving for epsilon, Initial residual = 0.00119849, Final residual = 5.36035e-06, No Iterations 2
DILUPBiCG:  Solving for k, Initial residual = 0.000710185, Final residual = 3.51485e-06, No Iterations 2
ExecutionTime = 1157.24 s  ClockTime = 1235 s

Time = 985

DILUPBiCG:  Solving for Ux, Initial residual = 0.000175693, Final residual = 1.66136e-05, No Iterations 1
DILUPBiCG:  Solving for Uy, Initial residual = 0.0133171, Final residual = 0.000170494, No Iterations 2
DILUPBiCG:  Solving for Uz, Initial residual = 0.00139521, Final residual = 0.000137305, No Iterations 1
DICPCG:  Solving for p, Initial residual = 0.00359504, Final residual = 3.50939e-05, No Iterations 16
time step continuity errors : sum local = 0.000441167, global = -9.14752e-05, cumulative = -0.000765893
DILUPBiCG:  Solving for epsilon, Initial residual = 0.00121249, Final residual = 8.08378e-05, No Iterations 1
DILUPBiCG:  Solving for k, Initial residual = 0.000734101, Final residual = 4.83153e-05, No Iterations 1
ExecutionTime = 1158.16 s  ClockTime = 1235 s

Time = 986

DILUPBiCG:  Solving for Ux, Initial residual = 0.000173945, Final residual = 1.34649e-05, No Iterations 1
DILUPBiCG:  Solving for Uy, Initial residual = 0.0132374, Final residual = 0.00119495, No Iterations 1
DILUPBiCG:  Solving for Uz, Initial residual = 0.00139897, Final residual = 0.000120877, No Iterations 1
DICPCG:  Solving for p, Initial residual = 0.00360122, Final residual = 3.55793e-05, No Iterations 59
time step continuity errors : sum local = 0.000447024, global = -1.18331e-06, cumulative = -0.000767076
DILUPBiCG:  Solving for epsilon, Initial residual = 0.00125304, Final residual = 5.91942e-06, No Iterations 2
DILUPBiCG:  Solving for k, Initial residual = 0.000715622, Final residual = 3.41451e-06, No Iterations 2
ExecutionTime = 1159.7 s  ClockTime = 1237 s

Time = 987

DILUPBiCG:  Solving for Ux, Initial residual = 0.000171453, Final residual = 1.0189e-05, No Iterations 2
DILUPBiCG:  Solving for Uy, Initial residual = 0.013083, Final residual = 0.000174825, No Iterations 2
DILUPBiCG:  Solving for Uz, Initial residual = 0.0013822, Final residual = 0.000125623, No Iterations 2
DICPCG:  Solving for p, Initial residual = 0.00359736, Final residual = 3.49438e-05, No Iterations 12
time step continuity errors : sum local = 0.000440164, global = -7.93181e-05, cumulative = -0.000846394
DILUPBiCG:  Solving for epsilon, Initial residual = 0.00124894, Final residual = 9.29697e-05, No Iterations 1
DILUPBiCG:  Solving for k, Initial residual = 0.00073383, Final residual = 4.945e-05, No Iterations 1
ExecutionTime = 1160.69 s  ClockTime = 1238 s

Time = 988

DILUPBiCG:  Solving for Ux, Initial residual = 0.000173023, Final residual = 1.39785e-05, No Iterations 1
DILUPBiCG:  Solving for Uy, Initial residual = 0.0132052, Final residual = 0.00119595, No Iterations 1
DILUPBiCG:  Solving for Uz, Initial residual = 0.00139261, Final residual = 0.000103611, No Iterations 1
DICPCG:  Solving for p, Initial residual = 0.00368087, Final residual = 3.62005e-05, No Iterations 13
time step continuity errors : sum local = 0.000454639, global = -7.63807e-05, cumulative = -0.000922775
DILUPBiCG:  Solving for epsilon, Initial residual = 0.00125949, Final residual = 6.36182e-06, No Iterations 2
DILUPBiCG:  Solving for k, Initial residual = 0.000718273, Final residual = 4.22092e-06, No Iterations 2
ExecutionTime = 1161.57 s  ClockTime = 1239 s

Time = 989

DILUPBiCG:  Solving for Ux, Initial residual = 0.000177249, Final residual = 7.07126e-06, No Iterations 2
DILUPBiCG:  Solving for Uy, Initial residual = 0.0132869, Final residual = 0.000169256, No Iterations 2
DILUPBiCG:  Solving for Uz, Initial residual = 0.001402, Final residual = 6.6439e-05, No Iterations 2
DICPCG:  Solving for p, Initial residual = 0.00365972, Final residual = 3.63291e-05, No Iterations 15
time step continuity errors : sum local = 0.000458482, global = -5.73717e-05, cumulative = -0.000980147
DILUPBiCG:  Solving for epsilon, Initial residual = 0.00124591, Final residual = 1.37775e-06, No Iterations 3
DILUPBiCG:  Solving for k, Initial residual = 0.000739321, Final residual = 5.29087e-05, No Iterations 1
ExecutionTime = 1162.49 s  ClockTime = 1240 s

Time = 990

DILUPBiCG:  Solving for Ux, Initial residual = 0.000175036, Final residual = 1.50833e-06, No Iterations 2
DILUPBiCG:  Solving for Uy, Initial residual = 0.0134114, Final residual = 0.00120779, No Iterations 1
DILUPBiCG:  Solving for Uz, Initial residual = 0.00140647, Final residual = 0.000113545, No Iterations 1
DICPCG:  Solving for p, Initial residual = 0.00368415, Final residual = 3.68261e-05, No Iterations 10
time step continuity errors : sum local = 0.000462012, global = -1.63554e-05, cumulative = -0.000996502
DILUPBiCG:  Solving for epsilon, Initial residual = 0.0012446, Final residual = 0.000122537, No Iterations 1
DILUPBiCG:  Solving for k, Initial residual = 0.000716393, Final residual = 4.06225e-06, No Iterations 2
ExecutionTime = 1163.37 s  ClockTime = 1241 s

Time = 991

DILUPBiCG:  Solving for Ux, Initial residual = 0.000168868, Final residual = 3.70354e-07, No Iterations 3
DILUPBiCG:  Solving for Uy, Initial residual = 0.013298, Final residual = 0.000193681, No Iterations 2
DILUPBiCG:  Solving for Uz, Initial residual = 0.00137923, Final residual = 2.45848e-06, No Iterations 3
DICPCG:  Solving for p, Initial residual = 0.00357471, Final residual = 3.33052e-05, No Iterations 11
time step continuity errors : sum local = 0.000419445, global = 3.68112e-05, cumulative = -0.000959691
DILUPBiCG:  Solving for epsilon, Initial residual = 0.00118323, Final residual = 6.99302e-05, No Iterations 1
DILUPBiCG:  Solving for k, Initial residual = 0.000748674, Final residual = 4.95187e-05, No Iterations 1
ExecutionTime = 1164.47 s  ClockTime = 1242 s

Time = 992

DILUPBiCG:  Solving for Ux, Initial residual = 0.000169284, Final residual = 1.37153e-06, No Iterations 2
DILUPBiCG:  Solving for Uy, Initial residual = 0.0133385, Final residual = 0.00116825, No Iterations 1
DILUPBiCG:  Solving for Uz, Initial residual = 0.00138183, Final residual = 1.18621e-05, No Iterations 2
DICPCG:  Solving for p, Initial residual = 0.00360464, Final residual = 3.57767e-05, No Iterations 28
time step continuity errors : sum local = 0.000449607, global = 3.04913e-05, cumulative = -0.0009292
DILUPBiCG:  Solving for epsilon, Initial residual = 0.00119702, Final residual = 8.14862e-05, No Iterations 1
DILUPBiCG:  Solving for k, Initial residual = 0.000728212, Final residual = 4.0052e-06, No Iterations 2
ExecutionTime = 1165.45 s  ClockTime = 1243 s

Time = 993

DILUPBiCG:  Solving for Ux, Initial residual = 0.00016983, Final residual = 1.0839e-05, No Iterations 1
DILUPBiCG:  Solving for Uy, Initial residual = 0.0132043, Final residual = 0.0001529, No Iterations 2
DILUPBiCG:  Solving for Uz, Initial residual = 0.00137552, Final residual = 5.00548e-05, No Iterations 2
DICPCG:  Solving for p, Initial residual = 0.00360064, Final residual = 3.44174e-05, No Iterations 15
time step continuity errors : sum local = 0.000435575, global = 8.01388e-05, cumulative = -0.000849061
DILUPBiCG:  Solving for epsilon, Initial residual = 0.00118987, Final residual = 6.89249e-05, No Iterations 1
DILUPBiCG:  Solving for k, Initial residual = 0.000751964, Final residual = 5.04615e-05, No Iterations 1
ExecutionTime = 1167.05 s  ClockTime = 1245 s

Time = 994

DILUPBiCG:  Solving for Ux, Initial residual = 0.000176313, Final residual = 1.70731e-05, No Iterations 1
DILUPBiCG:  Solving for Uy, Initial residual = 0.0132769, Final residual = 0.00127971, No Iterations 1
DILUPBiCG:  Solving for Uz, Initial residual = 0.00142351, Final residual = 0.000108724, No Iterations 1
DICPCG:  Solving for p, Initial residual = 0.00375266, Final residual = 3.68842e-05, No Iterations 13
time step continuity errors : sum local = 0.000462306, global = 9.36528e-05, cumulative = -0.000755408
DILUPBiCG:  Solving for epsilon, Initial residual = 0.00121924, Final residual = 7.53185e-05, No Iterations 1
DILUPBiCG:  Solving for k, Initial residual = 0.000729528, Final residual = 3.53248e-06, No Iterations 2
ExecutionTime = 1167.98 s  ClockTime = 1246 s

Time = 995

DILUPBiCG:  Solving for Ux, Initial residual = 0.000175961, Final residual = 1.25025e-05, No Iterations 1
DILUPBiCG:  Solving for Uy, Initial residual = 0.0130248, Final residual = 0.000159387, No Iterations 2
DILUPBiCG:  Solving for Uz, Initial residual = 0.00140504, Final residual = 0.000134014, No Iterations 1
DICPCG:  Solving for p, Initial residual = 0.0036404, Final residual = 3.50302e-05, No Iterations 16
time step continuity errors : sum local = 0.000442567, global = 7.78561e-05, cumulative = -0.000677552
DILUPBiCG:  Solving for epsilon, Initial residual = 0.00120781, Final residual = 8.35099e-05, No Iterations 1
DILUPBiCG:  Solving for k, Initial residual = 0.000754008, Final residual = 5.44146e-05, No Iterations 1
ExecutionTime = 1168.93 s  ClockTime = 1247 s

Time = 996

DILUPBiCG:  Solving for Ux, Initial residual = 0.000175305, Final residual = 1.02876e-05, No Iterations 1
DILUPBiCG:  Solving for Uy, Initial residual = 0.0130793, Final residual = 0.00119382, No Iterations 1
DILUPBiCG:  Solving for Uz, Initial residual = 0.0014071, Final residual = 0.00011566, No Iterations 1
DICPCG:  Solving for p, Initial residual = 0.00358408, Final residual = 3.51615e-05, No Iterations 19
time step continuity errors : sum local = 0.00044305, global = 9.52199e-05, cumulative = -0.000582332
DILUPBiCG:  Solving for epsilon, Initial residual = 0.00122184, Final residual = 6.88505e-05, No Iterations 1
DILUPBiCG:  Solving for k, Initial residual = 0.000730028, Final residual = 3.5938e-06, No Iterations 2
ExecutionTime = 1169.81 s  ClockTime = 1248 s

Time = 997

DILUPBiCG:  Solving for Ux, Initial residual = 0.000172171, Final residual = 1.21102e-05, No Iterations 1
DILUPBiCG:  Solving for Uy, Initial residual = 0.0131678, Final residual = 0.000170356, No Iterations 2
DILUPBiCG:  Solving for Uz, Initial residual = 0.00140056, Final residual = 0.000112316, No Iterations 1
DICPCG:  Solving for p, Initial residual = 0.00364862, Final residual = 3.61145e-05, No Iterations 38
time step continuity errors : sum local = 0.000452621, global = 6.76506e-05, cumulative = -0.000514682
DILUPBiCG:  Solving for epsilon, Initial residual = 0.00122712, Final residual = 1.61281e-05, No Iterations 2
DILUPBiCG:  Solving for k, Initial residual = 0.000750416, Final residual = 5.40765e-05, No Iterations 1
ExecutionTime = 1171.86 s  ClockTime = 1250 s

Time = 998

DILUPBiCG:  Solving for Ux, Initial residual = 0.000172925, Final residual = 9.78145e-06, No Iterations 1
DILUPBiCG:  Solving for Uy, Initial residual = 0.0133015, Final residual = 0.00111352, No Iterations 1
DILUPBiCG:  Solving for Uz, Initial residual = 0.00138918, Final residual = 0.000108332, No Iterations 1
DICPCG:  Solving for p, Initial residual = 0.00352058, Final residual = 3.34859e-05, No Iterations 12
time step continuity errors : sum local = 0.000423486, global = 8.4753e-05, cumulative = -0.000429929
DILUPBiCG:  Solving for epsilon, Initial residual = 0.00123953, Final residual = 8.04605e-05, No Iterations 1
DILUPBiCG:  Solving for k, Initial residual = 0.000725028, Final residual = 7.3608e-06, No Iterations 2
ExecutionTime = 1172.81 s  ClockTime = 1251 s

Time = 999

DILUPBiCG:  Solving for Ux, Initial residual = 0.000169026, Final residual = 4.20502e-06, No Iterations 2
DILUPBiCG:  Solving for Uy, Initial residual = 0.0131144, Final residual = 0.000160533, No Iterations 2
DILUPBiCG:  Solving for Uz, Initial residual = 0.00135944, Final residual = 8.20116e-05, No Iterations 2
DICPCG:  Solving for p, Initial residual = 0.00350036, Final residual = 3.37097e-05, No Iterations 14
time step continuity errors : sum local = 0.000422854, global = 0.000106195, cumulative = -0.000323734
DILUPBiCG:  Solving for epsilon, Initial residual = 0.00120592, Final residual = 4.00959e-05, No Iterations 2
DILUPBiCG:  Solving for k, Initial residual = 0.000744822, Final residual = 5.65465e-05, No Iterations 1
ExecutionTime = 1174.85 s  ClockTime = 1253 s

Time = 1000

DILUPBiCG:  Solving for Ux, Initial residual = 0.000169487, Final residual = 1.18575e-05, No Iterations 1
DILUPBiCG:  Solving for Uy, Initial residual = 0.0130336, Final residual = 0.00128697, No Iterations 1
DILUPBiCG:  Solving for Uz, Initial residual = 0.00136099, Final residual = 0.000112913, No Iterations 1
DICPCG:  Solving for p, Initial residual = 0.00352761, Final residual = 3.41317e-05, No Iterations 51
time step continuity errors : sum local = 0.000432491, global = -6.81838e-06, cumulative = -0.000330552
DILUPBiCG:  Solving for epsilon, Initial residual = 0.00117388, Final residual = 4.28407e-05, No Iterations 2
DILUPBiCG:  Solving for k, Initial residual = 0.000721229, Final residual = 3.7008e-06, No Iterations 2
ExecutionTime = 1180.35 s  ClockTime = 1266 s

End

