/*---------------------------------------------------------------------------*\
  =========                 |
  \\      /  F ield         | OpenFOAM: The Open Source CFD Toolbox
   \\    /   O peration     | Website:  https://openfoam.org
    \\  /    A nd           | Version:  7
     \\/     M anipulation  |
\*---------------------------------------------------------------------------*/
Build  : 7-1ff648926f77
Exec   : simpleFoam
Date   : Jun 18 2021
Time   : 03:56:29
Host   : "34ce503f1783"
PID    : 239
I/O    : uncollated
Case   : /home/openfoam/hoge
nProcs : 1
sigFpe : Enabling floating point exception trapping (FOAM_SIGFPE).
fileModificationChecking : Monitoring run-time modified files using timeStampMaster (fileModificationSkew 10)
allowSystemOperations : Allowing user-supplied system call operations

// * * * * * * * * * * * * * * * * * * * * * * * * * * * * * * * * * * * * * //
Create time

Create mesh for time = 0


SIMPLE: Convergence criteria found
        p: tolerance 0.01
        U: tolerance 0.001
        k: tolerance 0.001
        epsilon: tolerance 0.001

Reading field p

Reading field U

Reading/calculating face flux field phi

Selecting incompressible transport model Newtonian
Selecting turbulence model type RAS
Selecting RAS turbulence model kEpsilon
RAS
{
    RASModel        kEpsilon;
    turbulence      on;
    printCoeffs     on;
    Cmu             0.09;
    C1              1.44;
    C2              1.92;
    C3              0;
    sigmak          1;
    sigmaEps        1.3;
}

No MRF models present

No finite volume options present

Starting time loop

Time = 1

DILUPBiCG:  Solving for Ux, Initial residual = 1, Final residual = 0.000128634, No Iterations 1
DILUPBiCG:  Solving for Uy, Initial residual = 1, Final residual = 0.000345645, No Iterations 1
DILUPBiCG:  Solving for Uz, Initial residual = 1, Final residual = 0.000570101, No Iterations 1
DICPCG:  Solving for p, Initial residual = 1, Final residual = 0.00961948, No Iterations 611
time step continuity errors : sum local = 0.0757537, global = -4.55581e-05, cumulative = -4.55581e-05
DILUPBiCG:  Solving for epsilon, Initial residual = 1, Final residual = 0.0860305, No Iterations 1
bounding epsilon, min: -0.113207 max: 1.56747 average: 0.00257759
DILUPBiCG:  Solving for k, Initial residual = 1, Final residual = 0.0827985, No Iterations 1
bounding k, min: -0.068912 max: 0.637762 average: 0.00194932
ExecutionTime = 7.97 s  ClockTime = 9 s

Time = 2

DILUPBiCG:  Solving for Ux, Initial residual = 0.454189, Final residual = 0.0236886, No Iterations 1
DILUPBiCG:  Solving for Uy, Initial residual = 0.472552, Final residual = 0.00203039, No Iterations 1
DILUPBiCG:  Solving for Uz, Initial residual = 0.149003, Final residual = 0.00416027, No Iterations 1
DICPCG:  Solving for p, Initial residual = 0.0355845, Final residual = 0.000352751, No Iterations 614
time step continuity errors : sum local = 0.207612, global = 0.00016899, cumulative = 0.000123432
DILUPBiCG:  Solving for epsilon, Initial residual = 0.859179, Final residual = 0.00948833, No Iterations 2
bounding epsilon, min: -0.0085355 max: 62.2064 average: 0.0326557
DILUPBiCG:  Solving for k, Initial residual = 0.785652, Final residual = 0.00832037, No Iterations 2
bounding k, min: -0.00526973 max: 20.0543 average: 0.0131341
ExecutionTime = 13.09 s  ClockTime = 14 s

Time = 3

DILUPBiCG:  Solving for Ux, Initial residual = 0.424456, Final residual = 0.00441975, No Iterations 2
DILUPBiCG:  Solving for Uy, Initial residual = 0.377671, Final residual = 0.000778173, No Iterations 1
DILUPBiCG:  Solving for Uz, Initial residual = 0.122467, Final residual = 0.00390119, No Iterations 1
DICPCG:  Solving for p, Initial residual = 0.0412466, Final residual = 0.000393961, No Iterations 567
time step continuity errors : sum local = 0.690871, global = -0.00282785, cumulative = -0.00270442
DILUPBiCG:  Solving for epsilon, Initial residual = 0.390759, Final residual = 0.0378935, No Iterations 1
bounding epsilon, min: -0.0759206 max: 136.451 average: 0.126338
DILUPBiCG:  Solving for k, Initial residual = 0.304376, Final residual = 0.00197689, No Iterations 2
bounding k, min: -0.0276357 max: 30.3474 average: 0.0449377
ExecutionTime = 19.45 s  ClockTime = 21 s

Time = 4

DILUPBiCG:  Solving for Ux, Initial residual = 0.140352, Final residual = 0.00925243, No Iterations 1
DILUPBiCG:  Solving for Uy, Initial residual = 0.245765, Final residual = 0.000941195, No Iterations 1
DILUPBiCG:  Solving for Uz, Initial residual = 0.103425, Final residual = 0.00296504, No Iterations 1
DICPCG:  Solving for p, Initial residual = 0.125284, Final residual = 0.00124693, No Iterations 574
time step continuity errors : sum local = 1.33268, global = -0.00575873, cumulative = -0.00846315
DILUPBiCG:  Solving for epsilon, Initial residual = 0.345369, Final residual = 0.00237053, No Iterations 2
bounding epsilon, min: -0.214726 max: 168.978 average: 0.447184
DILUPBiCG:  Solving for k, Initial residual = 0.295325, Final residual = 0.00208155, No Iterations 2
bounding k, min: -0.0586456 max: 31.8571 average: 0.140489
ExecutionTime = 23.53 s  ClockTime = 25 s

Time = 5

DILUPBiCG:  Solving for Ux, Initial residual = 0.0679987, Final residual = 0.000821452, No Iterations 1
DILUPBiCG:  Solving for Uy, Initial residual = 0.217786, Final residual = 0.000750738, No Iterations 1
DILUPBiCG:  Solving for Uz, Initial residual = 0.080401, Final residual = 0.00134603, No Iterations 1
DICPCG:  Solving for p, Initial residual = 0.258018, Final residual = 0.00255499, No Iterations 648
time step continuity errors : sum local = 0.925597, global = -0.00782531, cumulative = -0.0162885
DILUPBiCG:  Solving for epsilon, Initial residual = 0.28316, Final residual = 0.00167004, No Iterations 2
bounding epsilon, min: -0.0907282 max: 182.27 average: 0.959718
DILUPBiCG:  Solving for k, Initial residual = 0.221997, Final residual = 0.00132722, No Iterations 2
bounding k, min: -0.0411037 max: 31.3905 average: 0.25618
ExecutionTime = 28.05 s  ClockTime = 29 s

Time = 6

DILUPBiCG:  Solving for Ux, Initial residual = 0.0760934, Final residual = 0.000878615, No Iterations 1
DILUPBiCG:  Solving for Uy, Initial residual = 0.164368, Final residual = 0.000471303, No Iterations 1
DILUPBiCG:  Solving for Uz, Initial residual = 0.111839, Final residual = 0.00112603, No Iterations 1
DICPCG:  Solving for p, Initial residual = 0.09435, Final residual = 0.000892447, No Iterations 667
time step continuity errors : sum local = 0.5734, global = 0.00387643, cumulative = -0.012412
DILUPBiCG:  Solving for epsilon, Initial residual = 0.212007, Final residual = 0.0205837, No Iterations 1
bounding epsilon, min: -0.267382 max: 192.505 average: 1.42642
DILUPBiCG:  Solving for k, Initial residual = 0.163438, Final residual = 0.0159149, No Iterations 1
bounding k, min: -0.0743301 max: 30.8155 average: 0.334359
ExecutionTime = 33.3 s  ClockTime = 35 s

Time = 7

DILUPBiCG:  Solving for Ux, Initial residual = 0.118917, Final residual = 0.00111129, No Iterations 1
DILUPBiCG:  Solving for Uy, Initial residual = 0.18753, Final residual = 0.000521741, No Iterations 1
DILUPBiCG:  Solving for Uz, Initial residual = 0.140383, Final residual = 0.0012216, No Iterations 1
DICPCG:  Solving for p, Initial residual = 0.0404396, Final residual = 0.00039265, No Iterations 647
time step continuity errors : sum local = 0.476623, global = 0.00205344, cumulative = -0.0103586
DILUPBiCG:  Solving for epsilon, Initial residual = 0.164689, Final residual = 0.0148649, No Iterations 1
bounding epsilon, min: -0.0287693 max: 205.016 average: 1.88694
DILUPBiCG:  Solving for k, Initial residual = 0.114592, Final residual = 0.0103637, No Iterations 1
bounding k, min: -0.0148608 max: 30.6439 average: 0.397147
ExecutionTime = 36.68 s  ClockTime = 38 s

Time = 8

DILUPBiCG:  Solving for Ux, Initial residual = 0.12082, Final residual = 0.000969166, No Iterations 1
DILUPBiCG:  Solving for Uy, Initial residual = 0.178252, Final residual = 0.000478382, No Iterations 1
DILUPBiCG:  Solving for Uz, Initial residual = 0.11533, Final residual = 0.000914218, No Iterations 1
DICPCG:  Solving for p, Initial residual = 0.0397372, Final residual = 0.00038084, No Iterations 640
time step continuity errors : sum local = 0.437253, global = -0.000182736, cumulative = -0.0105413
DILUPBiCG:  Solving for epsilon, Initial residual = 0.136207, Final residual = 0.0120069, No Iterations 1
bounding epsilon, min: -0.0186378 max: 239.254 average: 2.36201
DILUPBiCG:  Solving for k, Initial residual = 0.0898095, Final residual = 0.0079108, No Iterations 1
bounding k, min: -0.0259593 max: 30.7528 average: 0.450973
ExecutionTime = 41.49 s  ClockTime = 43 s

Time = 9

DILUPBiCG:  Solving for Ux, Initial residual = 0.071448, Final residual = 0.000533146, No Iterations 1
DILUPBiCG:  Solving for Uy, Initial residual = 0.14805, Final residual = 0.000399987, No Iterations 1
DILUPBiCG:  Solving for Uz, Initial residual = 0.0734948, Final residual = 0.000560169, No Iterations 1
DICPCG:  Solving for p, Initial residual = 0.0593893, Final residual = 0.000555983, No Iterations 637
time step continuity errors : sum local = 0.373727, global = 0.000458099, cumulative = -0.0100832
DILUPBiCG:  Solving for epsilon, Initial residual = 0.116806, Final residual = 0.0100172, No Iterations 1
DILUPBiCG:  Solving for k, Initial residual = 0.0738667, Final residual = 0.00627254, No Iterations 1
ExecutionTime = 47.31 s  ClockTime = 49 s

Time = 10

DILUPBiCG:  Solving for Ux, Initial residual = 0.0213383, Final residual = 0.000166155, No Iterations 1
DILUPBiCG:  Solving for Uy, Initial residual = 0.1438, Final residual = 0.000391975, No Iterations 1
DILUPBiCG:  Solving for Uz, Initial residual = 0.0362381, Final residual = 0.000284516, No Iterations 1
DICPCG:  Solving for p, Initial residual = 0.353327, Final residual = 0.00333687, No Iterations 628
time step continuity errors : sum local = 0.302986, global = 0.000198354, cumulative = -0.00988487
DILUPBiCG:  Solving for epsilon, Initial residual = 0.101253, Final residual = 0.00847368, No Iterations 1
DILUPBiCG:  Solving for k, Initial residual = 0.0625107, Final residual = 0.00514212, No Iterations 1
ExecutionTime = 51.66 s  ClockTime = 53 s

Time = 11

DILUPBiCG:  Solving for Ux, Initial residual = 0.0434001, Final residual = 0.000324344, No Iterations 1
DILUPBiCG:  Solving for Uy, Initial residual = 0.132265, Final residual = 0.000355946, No Iterations 1
DILUPBiCG:  Solving for Uz, Initial residual = 0.0394348, Final residual = 0.000298075, No Iterations 1
DICPCG:  Solving for p, Initial residual = 0.0643353, Final residual = 0.000642873, No Iterations 622
time step continuity errors : sum local = 0.274677, global = -7.1124e-05, cumulative = -0.009956
DILUPBiCG:  Solving for epsilon, Initial residual = 0.0884192, Final residual = 0.00721358, No Iterations 1
DILUPBiCG:  Solving for k, Initial residual = 0.0538382, Final residual = 0.0043236, No Iterations 1
ExecutionTime = 54.87 s  ClockTime = 57 s

Time = 12

DILUPBiCG:  Solving for Ux, Initial residual = 0.0537604, Final residual = 0.000372796, No Iterations 1
DILUPBiCG:  Solving for Uy, Initial residual = 0.121922, Final residual = 0.000324234, No Iterations 1
DILUPBiCG:  Solving for Uz, Initial residual = 0.0488311, Final residual = 0.000356842, No Iterations 1
DICPCG:  Solving for p, Initial residual = 0.0484144, Final residual = 0.000466776, No Iterations 605
time step continuity errors : sum local = 0.241166, global = 0.000328687, cumulative = -0.00962731
DILUPBiCG:  Solving for epsilon, Initial residual = 0.0778494, Final residual = 0.00619948, No Iterations 1
DILUPBiCG:  Solving for k, Initial residual = 0.0471604, Final residual = 0.00369172, No Iterations 1
ExecutionTime = 58.05 s  ClockTime = 60 s

Time = 13

DILUPBiCG:  Solving for Ux, Initial residual = 0.0380151, Final residual = 0.00025476, No Iterations 1
DILUPBiCG:  Solving for Uy, Initial residual = 0.111985, Final residual = 0.000292721, No Iterations 1
DILUPBiCG:  Solving for Uz, Initial residual = 0.0442631, Final residual = 0.000325494, No Iterations 1
DICPCG:  Solving for p, Initial residual = 0.0611676, Final residual = 0.000597337, No Iterations 621
time step continuity errors : sum local = 0.213523, global = 0.000478297, cumulative = -0.00914901
DILUPBiCG:  Solving for epsilon, Initial residual = 0.0692783, Final residual = 0.00540815, No Iterations 1
DILUPBiCG:  Solving for k, Initial residual = 0.0418638, Final residual = 0.003204, No Iterations 1
ExecutionTime = 62.33 s  ClockTime = 64 s

Time = 14

DILUPBiCG:  Solving for Ux, Initial residual = 0.0124599, Final residual = 8.15659e-05, No Iterations 1
DILUPBiCG:  Solving for Uy, Initial residual = 0.113933, Final residual = 0.000296192, No Iterations 1
DILUPBiCG:  Solving for Uz, Initial residual = 0.0286429, Final residual = 0.00021758, No Iterations 1
DICPCG:  Solving for p, Initial residual = 0.17315, Final residual = 0.0016722, No Iterations 618
time step continuity errors : sum local = 0.172937, global = 0.0011478, cumulative = -0.00800122
DILUPBiCG:  Solving for epsilon, Initial residual = 0.0621061, Final residual = 0.00478906, No Iterations 1
DILUPBiCG:  Solving for k, Initial residual = 0.0375242, Final residual = 0.00282149, No Iterations 1
ExecutionTime = 65.76 s  ClockTime = 68 s

Time = 15

DILUPBiCG:  Solving for Ux, Initial residual = 0.0179944, Final residual = 0.000131327, No Iterations 1
DILUPBiCG:  Solving for Uy, Initial residual = 0.0998086, Final residual = 0.00024851, No Iterations 1
DILUPBiCG:  Solving for Uz, Initial residual = 0.0241486, Final residual = 0.000173743, No Iterations 1
DICPCG:  Solving for p, Initial residual = 0.0906773, Final residual = 0.000872631, No Iterations 616
time step continuity errors : sum local = 0.140981, global = 7.8448e-06, cumulative = -0.00799337
DILUPBiCG:  Solving for epsilon, Initial residual = 0.0563412, Final residual = 0.00428523, No Iterations 1
DILUPBiCG:  Solving for k, Initial residual = 0.0341043, Final residual = 0.00252868, No Iterations 1
ExecutionTime = 68.92 s  ClockTime = 71 s

Time = 16

DILUPBiCG:  Solving for Ux, Initial residual = 0.0271884, Final residual = 0.000183587, No Iterations 1
DILUPBiCG:  Solving for Uy, Initial residual = 0.080046, Final residual = 0.000189027, No Iterations 1
DILUPBiCG:  Solving for Uz, Initial residual = 0.0256545, Final residual = 0.000181487, No Iterations 1
DICPCG:  Solving for p, Initial residual = 0.0547486, Final residual = 0.000538755, No Iterations 603
time step continuity errors : sum local = 0.121882, global = 5.69517e-05, cumulative = -0.00793642
DILUPBiCG:  Solving for epsilon, Initial residual = 0.0516358, Final residual = 0.00387394, No Iterations 1
DILUPBiCG:  Solving for k, Initial residual = 0.0313623, Final residual = 0.00229854, No Iterations 1
ExecutionTime = 73.46 s  ClockTime = 75 s

Time = 17

DILUPBiCG:  Solving for Ux, Initial residual = 0.0220659, Final residual = 0.000146361, No Iterations 1
DILUPBiCG:  Solving for Uy, Initial residual = 0.0621772, Final residual = 0.000136933, No Iterations 1
DILUPBiCG:  Solving for Uz, Initial residual = 0.0222732, Final residual = 0.000157049, No Iterations 1
DICPCG:  Solving for p, Initial residual = 0.059292, Final residual = 0.000574369, No Iterations 615
time step continuity errors : sum local = 0.101726, global = -0.000269977, cumulative = -0.0082064
DILUPBiCG:  Solving for epsilon, Initial residual = 0.0475841, Final residual = 0.00353019, No Iterations 1
DILUPBiCG:  Solving for k, Initial residual = 0.0289849, Final residual = 0.00210544, No Iterations 1
ExecutionTime = 77.85 s  ClockTime = 80 s

Time = 18

DILUPBiCG:  Solving for Ux, Initial residual = 0.00959662, Final residual = 6.48895e-05, No Iterations 1
DILUPBiCG:  Solving for Uy, Initial residual = 0.054479, Final residual = 0.000122678, No Iterations 1
DILUPBiCG:  Solving for Uz, Initial residual = 0.0156971, Final residual = 0.000109711, No Iterations 1
DICPCG:  Solving for p, Initial residual = 0.118885, Final residual = 0.00109476, No Iterations 618
time step continuity errors : sum local = 0.0795112, global = -0.000479885, cumulative = -0.00868628
DILUPBiCG:  Solving for epsilon, Initial residual = 0.0440695, Final residual = 0.00324628, No Iterations 1
DILUPBiCG:  Solving for k, Initial residual = 0.0269103, Final residual = 0.00194187, No Iterations 1
ExecutionTime = 81.27 s  ClockTime = 83 s

Time = 19

DILUPBiCG:  Solving for Ux, Initial residual = 0.00797206, Final residual = 5.15039e-05, No Iterations 1
DILUPBiCG:  Solving for Uy, Initial residual = 0.0481873, Final residual = 0.00010955, No Iterations 1
DILUPBiCG:  Solving for Uz, Initial residual = 0.0121491, Final residual = 8.13999e-05, No Iterations 1
DICPCG:  Solving for p, Initial residual = 0.120627, Final residual = 0.00116265, No Iterations 612
time step continuity errors : sum local = 0.066831, global = 1.74143e-05, cumulative = -0.00866887
DILUPBiCG:  Solving for epsilon, Initial residual = 0.0410621, Final residual = 0.0030098, No Iterations 1
DILUPBiCG:  Solving for k, Initial residual = 0.0251287, Final residual = 0.00180507, No Iterations 1
ExecutionTime = 84.36 s  ClockTime = 86 s

Time = 20

DILUPBiCG:  Solving for Ux, Initial residual = 0.012578, Final residual = 8.04008e-05, No Iterations 1
DILUPBiCG:  Solving for Uy, Initial residual = 0.0411429, Final residual = 8.73357e-05, No Iterations 1
DILUPBiCG:  Solving for Uz, Initial residual = 0.0133676, Final residual = 9.58164e-05, No Iterations 1
DICPCG:  Solving for p, Initial residual = 0.0583566, Final residual = 0.00053369, No Iterations 406
time step continuity errors : sum local = 0.0525995, global = 0.00702794, cumulative = -0.00164093
DILUPBiCG:  Solving for epsilon, Initial residual = 0.0385268, Final residual = 0.0028172, No Iterations 1
DILUPBiCG:  Solving for k, Initial residual = 0.0236461, Final residual = 0.00169151, No Iterations 1
ExecutionTime = 86.82 s  ClockTime = 89 s

Time = 21

DILUPBiCG:  Solving for Ux, Initial residual = 0.0119031, Final residual = 7.4524e-05, No Iterations 1
DILUPBiCG:  Solving for Uy, Initial residual = 0.0347348, Final residual = 6.38318e-05, No Iterations 1
DILUPBiCG:  Solving for Uz, Initial residual = 0.0136331, Final residual = 9.81331e-05, No Iterations 1
DICPCG:  Solving for p, Initial residual = 0.0536711, Final residual = 0.000507089, No Iterations 606
time step continuity errors : sum local = 0.0468745, global = 9.82645e-05, cumulative = -0.00154266
DILUPBiCG:  Solving for epsilon, Initial residual = 0.0363232, Final residual = 0.00264542, No Iterations 1
DILUPBiCG:  Solving for k, Initial residual = 0.0223598, Final residual = 0.00159928, No Iterations 1
ExecutionTime = 89.87 s  ClockTime = 92 s

Time = 22

DILUPBiCG:  Solving for Ux, Initial residual = 0.00653532, Final residual = 3.99739e-05, No Iterations 1
DILUPBiCG:  Solving for Uy, Initial residual = 0.0337878, Final residual = 5.64995e-05, No Iterations 1
DILUPBiCG:  Solving for Uz, Initial residual = 0.0114935, Final residual = 8.2185e-05, No Iterations 1
DICPCG:  Solving for p, Initial residual = 0.0901533, Final residual = 0.000901034, No Iterations 616
time step continuity errors : sum local = 0.0423502, global = 0.000184679, cumulative = -0.00135798
DILUPBiCG:  Solving for epsilon, Initial residual = 0.0343296, Final residual = 0.00249613, No Iterations 1
DILUPBiCG:  Solving for k, Initial residual = 0.0211973, Final residual = 0.00151992, No Iterations 1
ExecutionTime = 93.09 s  ClockTime = 95 s

Time = 23

DILUPBiCG:  Solving for Ux, Initial residual = 0.00478434, Final residual = 2.72139e-05, No Iterations 1
DILUPBiCG:  Solving for Uy, Initial residual = 0.0415369, Final residual = 6.14975e-05, No Iterations 1
DILUPBiCG:  Solving for Uz, Initial residual = 0.00954615, Final residual = 6.31035e-05, No Iterations 1
DICPCG:  Solving for p, Initial residual = 0.159563, Final residual = 0.0015392, No Iterations 609
time step continuity errors : sum local = 0.0337411, global = -5.16251e-05, cumulative = -0.00140961
DILUPBiCG:  Solving for epsilon, Initial residual = 0.0325554, Final residual = 0.00237322, No Iterations 1
DILUPBiCG:  Solving for k, Initial residual = 0.0201633, Final residual = 0.0014493, No Iterations 1
ExecutionTime = 96.46 s  ClockTime = 99 s

Time = 24

DILUPBiCG:  Solving for Ux, Initial residual = 0.006718, Final residual = 4.49703e-05, No Iterations 1
DILUPBiCG:  Solving for Uy, Initial residual = 0.0422223, Final residual = 5.9157e-05, No Iterations 1
DILUPBiCG:  Solving for Uz, Initial residual = 0.0095691, Final residual = 6.26575e-05, No Iterations 1
DICPCG:  Solving for p, Initial residual = 0.0633108, Final residual = 0.000628327, No Iterations 401
time step continuity errors : sum local = 0.0290292, global = 0.000707799, cumulative = -0.000701809
DILUPBiCG:  Solving for epsilon, Initial residual = 0.0308986, Final residual = 0.00225238, No Iterations 1
DILUPBiCG:  Solving for k, Initial residual = 0.0192007, Final residual = 0.00138127, No Iterations 1
ExecutionTime = 99.04 s  ClockTime = 101 s

Time = 25

DILUPBiCG:  Solving for Ux, Initial residual = 0.00671262, Final residual = 4.43348e-05, No Iterations 1
DILUPBiCG:  Solving for Uy, Initial residual = 0.0327829, Final residual = 4.36993e-05, No Iterations 1
DILUPBiCG:  Solving for Uz, Initial residual = 0.00918356, Final residual = 5.9711e-05, No Iterations 1
DICPCG:  Solving for p, Initial residual = 0.0565336, Final residual = 0.000535755, No Iterations 598
time step continuity errors : sum local = 0.0240709, global = 0.00014441, cumulative = -0.000557399
DILUPBiCG:  Solving for epsilon, Initial residual = 0.0293868, Final residual = 0.00213441, No Iterations 1
DILUPBiCG:  Solving for k, Initial residual = 0.0183189, Final residual = 0.00131363, No Iterations 1
ExecutionTime = 103.22 s  ClockTime = 106 s

Time = 26

DILUPBiCG:  Solving for Ux, Initial residual = 0.00477674, Final residual = 2.99072e-05, No Iterations 1
DILUPBiCG:  Solving for Uy, Initial residual = 0.0210759, Final residual = 3.04975e-05, No Iterations 1
DILUPBiCG:  Solving for Uz, Initial residual = 0.00812262, Final residual = 5.06517e-05, No Iterations 1
DICPCG:  Solving for p, Initial residual = 0.0807944, Final residual = 0.000791745, No Iterations 612
time step continuity errors : sum local = 0.0218135, global = -5.63143e-05, cumulative = -0.000613713
DILUPBiCG:  Solving for epsilon, Initial residual = 0.0280054, Final residual = 0.00202204, No Iterations 1
DILUPBiCG:  Solving for k, Initial residual = 0.0175115, Final residual = 0.00124882, No Iterations 1
ExecutionTime = 106.91 s  ClockTime = 109 s

Time = 27

DILUPBiCG:  Solving for Ux, Initial residual = 0.00367265, Final residual = 1.66781e-05, No Iterations 1
DILUPBiCG:  Solving for Uy, Initial residual = 0.0204495, Final residual = 3.31142e-05, No Iterations 1
DILUPBiCG:  Solving for Uz, Initial residual = 0.00711139, Final residual = 4.16438e-05, No Iterations 1
DICPCG:  Solving for p, Initial residual = 0.22884, Final residual = 0.00223267, No Iterations 606
time step continuity errors : sum local = 0.0184075, global = -5.54343e-05, cumulative = -0.000669148
DILUPBiCG:  Solving for epsilon, Initial residual = 0.0267464, Final residual = 0.00192041, No Iterations 1
DILUPBiCG:  Solving for k, Initial residual = 0.0167723, Final residual = 0.00119078, No Iterations 1
ExecutionTime = 110.53 s  ClockTime = 113 s

Time = 28

DILUPBiCG:  Solving for Ux, Initial residual = 0.0039258, Final residual = 2.16631e-05, No Iterations 1
DILUPBiCG:  Solving for Uy, Initial residual = 0.0173704, Final residual = 2.85382e-05, No Iterations 1
DILUPBiCG:  Solving for Uz, Initial residual = 0.00681839, Final residual = 4.18932e-05, No Iterations 1
DICPCG:  Solving for p, Initial residual = 0.075931, Final residual = 0.000732449, No Iterations 603
time step continuity errors : sum local = 0.0154414, global = -3.93342e-05, cumulative = -0.000708482
DILUPBiCG:  Solving for epsilon, Initial residual = 0.0256028, Final residual = 0.00183222, No Iterations 1
DILUPBiCG:  Solving for k, Initial residual = 0.0161015, Final residual = 0.00114197, No Iterations 1
ExecutionTime = 113.65 s  ClockTime = 116 s

Time = 29

DILUPBiCG:  Solving for Ux, Initial residual = 0.00404129, Final residual = 2.32312e-05, No Iterations 1
DILUPBiCG:  Solving for Uy, Initial residual = 0.0142532, Final residual = 2.23964e-05, No Iterations 1
DILUPBiCG:  Solving for Uz, Initial residual = 0.00675018, Final residual = 4.41759e-05, No Iterations 1
DICPCG:  Solving for p, Initial residual = 0.0603599, Final residual = 0.000598285, No Iterations 593
time step continuity errors : sum local = 0.0139016, global = -3.22453e-05, cumulative = -0.000740727
DILUPBiCG:  Solving for epsilon, Initial residual = 0.0245623, Final residual = 0.00175404, No Iterations 1
DILUPBiCG:  Solving for k, Initial residual = 0.0154934, Final residual = 0.00109861, No Iterations 1
ExecutionTime = 116.93 s  ClockTime = 119 s

Time = 30

DILUPBiCG:  Solving for Ux, Initial residual = 0.00346306, Final residual = 1.81299e-05, No Iterations 1
DILUPBiCG:  Solving for Uy, Initial residual = 0.0119207, Final residual = 1.80868e-05, No Iterations 1
DILUPBiCG:  Solving for Uz, Initial residual = 0.00649675, Final residual = 4.28269e-05, No Iterations 1
DICPCG:  Solving for p, Initial residual = 0.0740883, Final residual = 0.000726879, No Iterations 604
time step continuity errors : sum local = 0.0122732, global = 3.40149e-05, cumulative = -0.000706712
DILUPBiCG:  Solving for epsilon, Initial residual = 0.0236046, Final residual = 0.00168497, No Iterations 1
DILUPBiCG:  Solving for k, Initial residual = 0.0149299, Final residual = 0.00105841, No Iterations 1
ExecutionTime = 121.23 s  ClockTime = 124 s

Time = 31

DILUPBiCG:  Solving for Ux, Initial residual = 0.00299348, Final residual = 1.30282e-05, No Iterations 1
DILUPBiCG:  Solving for Uy, Initial residual = 0.0126014, Final residual = 1.90274e-05, No Iterations 1
DILUPBiCG:  Solving for Uz, Initial residual = 0.00619705, Final residual = 3.84918e-05, No Iterations 1
DICPCG:  Solving for p, Initial residual = 0.144729, Final residual = 0.00138854, No Iterations 606
time step continuity errors : sum local = 0.01042, global = 2.67277e-05, cumulative = -0.000679985
DILUPBiCG:  Solving for epsilon, Initial residual = 0.0227128, Final residual = 0.00162024, No Iterations 1
DILUPBiCG:  Solving for k, Initial residual = 0.0144048, Final residual = 0.0010209, No Iterations 1
ExecutionTime = 124.52 s  ClockTime = 127 s

Time = 32

DILUPBiCG:  Solving for Ux, Initial residual = 0.0029441, Final residual = 1.46863e-05, No Iterations 1
DILUPBiCG:  Solving for Uy, Initial residual = 0.0114175, Final residual = 1.81125e-05, No Iterations 1
DILUPBiCG:  Solving for Uz, Initial residual = 0.00601153, Final residual = 3.59476e-05, No Iterations 1
DICPCG:  Solving for p, Initial residual = 0.0990833, Final residual = 0.000979764, No Iterations 601
time step continuity errors : sum local = 0.00937466, global = 1.2487e-05, cumulative = -0.000667498
DILUPBiCG:  Solving for epsilon, Initial residual = 0.0218822, Final residual = 0.00155922, No Iterations 1
DILUPBiCG:  Solving for k, Initial residual = 0.0139137, Final residual = 0.000985762, No Iterations 1
ExecutionTime = 127.86 s  ClockTime = 130 s

Time = 33

DILUPBiCG:  Solving for Ux, Initial residual = 0.00296895, Final residual = 1.60692e-05, No Iterations 1
DILUPBiCG:  Solving for Uy, Initial residual = 0.00989842, Final residual = 1.55576e-05, No Iterations 1
DILUPBiCG:  Solving for Uz, Initial residual = 0.00585207, Final residual = 3.45647e-05, No Iterations 1
DICPCG:  Solving for p, Initial residual = 0.0730049, Final residual = 0.000692718, No Iterations 602
time step continuity errors : sum local = 0.00809242, global = 3.02279e-05, cumulative = -0.00063727
DILUPBiCG:  Solving for epsilon, Initial residual = 0.0211068, Final residual = 0.00150302, No Iterations 1
DILUPBiCG:  Solving for k, Initial residual = 0.0134535, Final residual = 0.000952244, No Iterations 1
ExecutionTime = 131.24 s  ClockTime = 134 s

Time = 34

DILUPBiCG:  Solving for Ux, Initial residual = 0.00278956, Final residual = 1.43103e-05, No Iterations 1
DILUPBiCG:  Solving for Uy, Initial residual = 0.00869295, Final residual = 1.3182e-05, No Iterations 1
DILUPBiCG:  Solving for Uz, Initial residual = 0.00561475, Final residual = 3.21555e-05, No Iterations 1
DICPCG:  Solving for p, Initial residual = 0.0814468, Final residual = 0.000787489, No Iterations 591
time step continuity errors : sum local = 0.0075572, global = -4.19819e-06, cumulative = -0.000641468
DILUPBiCG:  Solving for epsilon, Initial residual = 0.0203842, Final residual = 0.0014512, No Iterations 1
DILUPBiCG:  Solving for k, Initial residual = 0.0130233, Final residual = 0.000921247, No Iterations 1
ExecutionTime = 136.34 s  ClockTime = 139 s

Time = 35

DILUPBiCG:  Solving for Ux, Initial residual = 0.00257367, Final residual = 1.16572e-05, No Iterations 1
DILUPBiCG:  Solving for Uy, Initial residual = 0.0104174, Final residual = 1.48138e-05, No Iterations 1
DILUPBiCG:  Solving for Uz, Initial residual = 0.00537808, Final residual = 4.89557e-05, No Iterations 1
DICPCG:  Solving for p, Initial residual = 0.127287, Final residual = 0.00124416, No Iterations 600
time step continuity errors : sum local = 0.00681074, global = -2.14092e-05, cumulative = -0.000662877
DILUPBiCG:  Solving for epsilon, Initial residual = 0.0197086, Final residual = 0.00140298, No Iterations 1
DILUPBiCG:  Solving for k, Initial residual = 0.0126186, Final residual = 0.000892269, No Iterations 1
ExecutionTime = 140.27 s  ClockTime = 143 s

Time = 36

DILUPBiCG:  Solving for Ux, Initial residual = 0.00246059, Final residual = 1.0923e-05, No Iterations 1
DILUPBiCG:  Solving for Uy, Initial residual = 0.0109838, Final residual = 1.52099e-05, No Iterations 1
DILUPBiCG:  Solving for Uz, Initial residual = 0.00519595, Final residual = 3.33112e-05, No Iterations 1
DICPCG:  Solving for p, Initial residual = 0.110152, Final residual = 0.00106316, No Iterations 596
time step continuity errors : sum local = 0.00598446, global = -1.98552e-05, cumulative = -0.000682732
DILUPBiCG:  Solving for epsilon, Initial residual = 0.0190799, Final residual = 0.00135749, No Iterations 1
DILUPBiCG:  Solving for k, Initial residual = 0.0122375, Final residual = 0.000864845, No Iterations 1
ExecutionTime = 143.67 s  ClockTime = 146 s

Time = 37

DILUPBiCG:  Solving for Ux, Initial residual = 0.00240463, Final residual = 1.1014e-05, No Iterations 1
DILUPBiCG:  Solving for Uy, Initial residual = 0.0105383, Final residual = 1.38556e-05, No Iterations 1
DILUPBiCG:  Solving for Uz, Initial residual = 0.00504289, Final residual = 2.87855e-05, No Iterations 1
DICPCG:  Solving for p, Initial residual = 0.0803883, Final residual = 0.000791665, No Iterations 205
time step continuity errors : sum local = 0.00565759, global = 0.000322867, cumulative = -0.000359866
DILUPBiCG:  Solving for epsilon, Initial residual = 0.0184879, Final residual = 0.00131456, No Iterations 1
DILUPBiCG:  Solving for k, Initial residual = 0.0118788, Final residual = 0.000839196, No Iterations 1
ExecutionTime = 145.36 s  ClockTime = 148 s

Time = 38

DILUPBiCG:  Solving for Ux, Initial residual = 0.00231964, Final residual = 1.05843e-05, No Iterations 1
DILUPBiCG:  Solving for Uy, Initial residual = 0.00943652, Final residual = 1.27842e-05, No Iterations 1
DILUPBiCG:  Solving for Uz, Initial residual = 0.00492575, Final residual = 2.80474e-05, No Iterations 1
DICPCG:  Solving for p, Initial residual = 0.0778025, Final residual = 0.000769727, No Iterations 588
time step continuity errors : sum local = 0.00529699, global = -1.99908e-05, cumulative = -0.000379856
DILUPBiCG:  Solving for epsilon, Initial residual = 0.0179251, Final residual = 0.00127456, No Iterations 1
DILUPBiCG:  Solving for k, Initial residual = 0.0115376, Final residual = 0.000814422, No Iterations 1
ExecutionTime = 149.48 s  ClockTime = 152 s

Time = 39

DILUPBiCG:  Solving for Ux, Initial residual = 0.00220606, Final residual = 9.79067e-06, No Iterations 1
DILUPBiCG:  Solving for Uy, Initial residual = 0.00930809, Final residual = 1.34098e-05, No Iterations 1
DILUPBiCG:  Solving for Uz, Initial residual = 0.0048271, Final residual = 2.76486e-05, No Iterations 1
DICPCG:  Solving for p, Initial residual = 0.0992869, Final residual = 0.000936376, No Iterations 592
time step continuity errors : sum local = 0.00470748, global = -5.68647e-06, cumulative = -0.000385543
DILUPBiCG:  Solving for epsilon, Initial residual = 0.0173841, Final residual = 0.00123498, No Iterations 1
bounding epsilon, min: -0.0840051 max: 1464.56 average: 23.7381
DILUPBiCG:  Solving for k, Initial residual = 0.01121, Final residual = 0.000790892, No Iterations 1
ExecutionTime = 153.51 s  ClockTime = 156 s

Time = 40

DILUPBiCG:  Solving for Ux, Initial residual = 0.00212305, Final residual = 9.50992e-06, No Iterations 1
DILUPBiCG:  Solving for Uy, Initial residual = 0.00968385, Final residual = 1.44734e-05, No Iterations 1
DILUPBiCG:  Solving for Uz, Initial residual = 0.00474694, Final residual = 2.74881e-05, No Iterations 1
DICPCG:  Solving for p, Initial residual = 0.14487, Final residual = 0.00140244, No Iterations 595
time step continuity errors : sum local = 0.00430124, global = -4.14304e-06, cumulative = -0.000389686
DILUPBiCG:  Solving for epsilon, Initial residual = 0.0168648, Final residual = 0.00119733, No Iterations 1
DILUPBiCG:  Solving for k, Initial residual = 0.0108933, Final residual = 0.000767971, No Iterations 1
ExecutionTime = 157.34 s  ClockTime = 160 s

Time = 41

DILUPBiCG:  Solving for Ux, Initial residual = 0.00206594, Final residual = 9.51064e-06, No Iterations 1
DILUPBiCG:  Solving for Uy, Initial residual = 0.00873189, Final residual = 1.29836e-05, No Iterations 1
DILUPBiCG:  Solving for Uz, Initial residual = 0.00463504, Final residual = 2.68899e-05, No Iterations 1
DICPCG:  Solving for p, Initial residual = 0.111046, Final residual = 0.00108121, No Iterations 370
time step continuity errors : sum local = 0.00400017, global = 0.000176519, cumulative = -0.000213167
DILUPBiCG:  Solving for epsilon, Initial residual = 0.0163644, Final residual = 0.00116134, No Iterations 1
DILUPBiCG:  Solving for k, Initial residual = 0.0105878, Final residual = 0.000746142, No Iterations 1
ExecutionTime = 159.99 s  ClockTime = 163 s

Time = 42

DILUPBiCG:  Solving for Ux, Initial residual = 0.00200514, Final residual = 9.25832e-06, No Iterations 1
DILUPBiCG:  Solving for Uy, Initial residual = 0.00754637, Final residual = 1.13773e-05, No Iterations 1
DILUPBiCG:  Solving for Uz, Initial residual = 0.00452687, Final residual = 2.62198e-05, No Iterations 1
DICPCG:  Solving for p, Initial residual = 0.109278, Final residual = 0.00109276, No Iterations 313
time step continuity errors : sum local = 0.0039621, global = -0.000590263, cumulative = -0.00080343
DILUPBiCG:  Solving for epsilon, Initial residual = 0.0158812, Final residual = 0.00112607, No Iterations 1
DILUPBiCG:  Solving for k, Initial residual = 0.0102928, Final residual = 0.00072527, No Iterations 1
ExecutionTime = 162.02 s  ClockTime = 165 s

Time = 43

DILUPBiCG:  Solving for Ux, Initial residual = 0.00194069, Final residual = 8.97938e-06, No Iterations 1
DILUPBiCG:  Solving for Uy, Initial residual = 0.00668008, Final residual = 1.04188e-05, No Iterations 1
DILUPBiCG:  Solving for Uz, Initial residual = 0.0044325, Final residual = 2.56873e-05, No Iterations 1
DICPCG:  Solving for p, Initial residual = 0.111256, Final residual = 0.00110587, No Iterations 582
time step continuity errors : sum local = 0.00367324, global = 1.88575e-06, cumulative = -0.000801545
DILUPBiCG:  Solving for epsilon, Initial residual = 0.0154122, Final residual = 0.00109255, No Iterations 1
DILUPBiCG:  Solving for k, Initial residual = 0.0100066, Final residual = 0.000704887, No Iterations 1
ExecutionTime = 165 s  ClockTime = 168 s

Time = 44

DILUPBiCG:  Solving for Ux, Initial residual = 0.00187411, Final residual = 8.5696e-06, No Iterations 1
DILUPBiCG:  Solving for Uy, Initial residual = 0.00708429, Final residual = 1.08979e-05, No Iterations 1
DILUPBiCG:  Solving for Uz, Initial residual = 0.00433733, Final residual = 2.50281e-05, No Iterations 1
DICPCG:  Solving for p, Initial residual = 0.135319, Final residual = 0.00130416, No Iterations 575
time step continuity errors : sum local = 0.00326338, global = 1.21332e-05, cumulative = -0.000789411
DILUPBiCG:  Solving for epsilon, Initial residual = 0.0149576, Final residual = 0.00105962, No Iterations 1
DILUPBiCG:  Solving for k, Initial residual = 0.00972893, Final residual = 0.000685142, No Iterations 1
ExecutionTime = 167.89 s  ClockTime = 171 s

Time = 45

DILUPBiCG:  Solving for Ux, Initial residual = 0.00181971, Final residual = 8.31864e-06, No Iterations 1
DILUPBiCG:  Solving for Uy, Initial residual = 0.00692461, Final residual = 1.04738e-05, No Iterations 1
DILUPBiCG:  Solving for Uz, Initial residual = 0.00424355, Final residual = 2.43369e-05, No Iterations 1
DICPCG:  Solving for p, Initial residual = 0.0988616, Final residual = 0.000961998, No Iterations 346
time step continuity errors : sum local = 0.003068, global = -0.000423808, cumulative = -0.00121322
DILUPBiCG:  Solving for epsilon, Initial residual = 0.0145164, Final residual = 0.00102856, No Iterations 1
DILUPBiCG:  Solving for k, Initial residual = 0.00946039, Final residual = 0.000666626, No Iterations 1
ExecutionTime = 169.97 s  ClockTime = 173 s

Time = 46

DILUPBiCG:  Solving for Ux, Initial residual = 0.00176875, Final residual = 8.09264e-06, No Iterations 1
DILUPBiCG:  Solving for Uy, Initial residual = 0.00614142, Final residual = 9.1249e-06, No Iterations 1
DILUPBiCG:  Solving for Uz, Initial residual = 0.00416513, Final residual = 2.38482e-05, No Iterations 1
DICPCG:  Solving for p, Initial residual = 0.096975, Final residual = 0.000947076, No Iterations 165
time step continuity errors : sum local = 0.00302196, global = -0.000174639, cumulative = -0.00138786
DILUPBiCG:  Solving for epsilon, Initial residual = 0.0140927, Final residual = 0.000998522, No Iterations 1
DILUPBiCG:  Solving for k, Initial residual = 0.00920037, Final residual = 0.000648507, No Iterations 1
ExecutionTime = 171.43 s  ClockTime = 175 s

Time = 47

DILUPBiCG:  Solving for Ux, Initial residual = 0.00171947, Final residual = 7.87519e-06, No Iterations 1
DILUPBiCG:  Solving for Uy, Initial residual = 0.00570586, Final residual = 8.23313e-06, No Iterations 1
DILUPBiCG:  Solving for Uz, Initial residual = 0.00409206, Final residual = 2.33564e-05, No Iterations 1
DICPCG:  Solving for p, Initial residual = 0.0974965, Final residual = 0.000971827, No Iterations 304
time step continuity errors : sum local = 0.00299996, global = 0.000129333, cumulative = -0.00125853
DILUPBiCG:  Solving for epsilon, Initial residual = 0.0136835, Final residual = 0.000969478, No Iterations 1
DILUPBiCG:  Solving for k, Initial residual = 0.0089495, Final residual = 0.000630857, No Iterations 1
ExecutionTime = 174.18 s  ClockTime = 177 s

Time = 48

DILUPBiCG:  Solving for Ux, Initial residual = 0.0016719, Final residual = 7.69563e-06, No Iterations 1
DILUPBiCG:  Solving for Uy, Initial residual = 0.00553433, Final residual = 7.86941e-06, No Iterations 1
DILUPBiCG:  Solving for Uz, Initial residual = 0.00402664, Final residual = 2.29222e-05, No Iterations 1
DICPCG:  Solving for p, Initial residual = 0.0976311, Final residual = 0.000969801, No Iterations 327
time step continuity errors : sum local = 0.00279667, global = 0.000384715, cumulative = -0.000873811
DILUPBiCG:  Solving for epsilon, Initial residual = 0.0132907, Final residual = 0.000941311, No Iterations 1
DILUPBiCG:  Solving for k, Initial residual = 0.00870835, Final residual = 0.00061395, No Iterations 1
ExecutionTime = 179.4 s  ClockTime = 183 s

Time = 49

DILUPBiCG:  Solving for Ux, Initial residual = 0.00162796, Final residual = 7.50755e-06, No Iterations 1
DILUPBiCG:  Solving for Uy, Initial residual = 0.00535743, Final residual = 7.49848e-06, No Iterations 1
DILUPBiCG:  Solving for Uz, Initial residual = 0.00396444, Final residual = 2.24781e-05, No Iterations 1
DICPCG:  Solving for p, Initial residual = 0.0982163, Final residual = 0.000977272, No Iterations 567
time step continuity errors : sum local = 0.00262212, global = 3.82955e-07, cumulative = -0.000873428
DILUPBiCG:  Solving for epsilon, Initial residual = 0.0129147, Final residual = 0.000914822, No Iterations 1
DILUPBiCG:  Solving for k, Initial residual = 0.00847761, Final residual = 0.000597615, No Iterations 1
ExecutionTime = 185.93 s  ClockTime = 190 s

Time = 50

DILUPBiCG:  Solving for Ux, Initial residual = 0.00158692, Final residual = 7.35031e-06, No Iterations 1
DILUPBiCG:  Solving for Uy, Initial residual = 0.00531423, Final residual = 7.4471e-06, No Iterations 1
DILUPBiCG:  Solving for Uz, Initial residual = 0.00390158, Final residual = 2.21299e-05, No Iterations 1
DICPCG:  Solving for p, Initial residual = 0.110923, Final residual = 0.00108903, No Iterations 98
time step continuity errors : sum local = 0.00242927, global = 0.000371904, cumulative = -0.000501524
DILUPBiCG:  Solving for epsilon, Initial residual = 0.0125556, Final residual = 0.000889285, No Iterations 1
DILUPBiCG:  Solving for k, Initial residual = 0.00825589, Final residual = 0.000582403, No Iterations 1
ExecutionTime = 190.01 s  ClockTime = 200 s

Time = 51

DILUPBiCG:  Solving for Ux, Initial residual = 0.00154849, Final residual = 7.20521e-06, No Iterations 1
DILUPBiCG:  Solving for Uy, Initial residual = 0.00489966, Final residual = 6.87881e-06, No Iterations 1
DILUPBiCG:  Solving for Uz, Initial residual = 0.00383573, Final residual = 2.17179e-05, No Iterations 1
DICPCG:  Solving for p, Initial residual = 0.108652, Final residual = 0.0010307, No Iterations 584
time step continuity errors : sum local = 0.00223335, global = 1.27423e-05, cumulative = -0.000488782
DILUPBiCG:  Solving for epsilon, Initial residual = 0.0122113, Final residual = 0.000865007, No Iterations 1
DILUPBiCG:  Solving for k, Initial residual = 0.00804395, Final residual = 0.000567559, No Iterations 1
ExecutionTime = 194.69 s  ClockTime = 205 s

Time = 52

DILUPBiCG:  Solving for Ux, Initial residual = 0.00151238, Final residual = 7.04002e-06, No Iterations 1
DILUPBiCG:  Solving for Uy, Initial residual = 0.00486912, Final residual = 6.98246e-06, No Iterations 1
DILUPBiCG:  Solving for Uz, Initial residual = 0.00377859, Final residual = 2.13853e-05, No Iterations 1
DICPCG:  Solving for p, Initial residual = 0.117565, Final residual = 0.00115736, No Iterations 281
time step continuity errors : sum local = 0.00222037, global = 0.000123447, cumulative = -0.000365335
DILUPBiCG:  Solving for epsilon, Initial residual = 0.011881, Final residual = 0.000841726, No Iterations 1
DILUPBiCG:  Solving for k, Initial residual = 0.00783896, Final residual = 0.000553088, No Iterations 1
ExecutionTime = 197.45 s  ClockTime = 208 s

Time = 53

DILUPBiCG:  Solving for Ux, Initial residual = 0.00147772, Final residual = 6.88883e-06, No Iterations 1
DILUPBiCG:  Solving for Uy, Initial residual = 0.00471569, Final residual = 6.91104e-06, No Iterations 1
DILUPBiCG:  Solving for Uz, Initial residual = 0.00372219, Final residual = 2.10349e-05, No Iterations 1
DICPCG:  Solving for p, Initial residual = 0.112241, Final residual = 0.00109287, No Iterations 255
time step continuity errors : sum local = 0.00208304, global = -2.22596e-05, cumulative = -0.000387595
DILUPBiCG:  Solving for epsilon, Initial residual = 0.0115653, Final residual = 0.000819278, No Iterations 1
DILUPBiCG:  Solving for k, Initial residual = 0.00764369, Final residual = 0.00053926, No Iterations 1
ExecutionTime = 199.62 s  ClockTime = 210 s

Time = 54

DILUPBiCG:  Solving for Ux, Initial residual = 0.00144493, Final residual = 6.72406e-06, No Iterations 1
DILUPBiCG:  Solving for Uy, Initial residual = 0.00469924, Final residual = 7.01462e-06, No Iterations 1
DILUPBiCG:  Solving for Uz, Initial residual = 0.00366987, Final residual = 2.06912e-05, No Iterations 1
DICPCG:  Solving for p, Initial residual = 0.10977, Final residual = 0.00103856, No Iterations 43
time step continuity errors : sum local = 0.00195597, global = -0.000178202, cumulative = -0.000565797
DILUPBiCG:  Solving for epsilon, Initial residual = 0.0112641, Final residual = 0.00079749, No Iterations 1
DILUPBiCG:  Solving for k, Initial residual = 0.00745657, Final residual = 0.000525852, No Iterations 1
ExecutionTime = 201.37 s  ClockTime = 212 s

Time = 55

DILUPBiCG:  Solving for Ux, Initial residual = 0.0014137, Final residual = 6.59605e-06, No Iterations 1
DILUPBiCG:  Solving for Uy, Initial residual = 0.00465308, Final residual = 7.11469e-06, No Iterations 1
DILUPBiCG:  Solving for Uz, Initial residual = 0.00362106, Final residual = 2.03966e-05, No Iterations 1
DICPCG:  Solving for p, Initial residual = 0.108357, Final residual = 0.00105557, No Iterations 68
time step continuity errors : sum local = 0.00193084, global = -0.000310791, cumulative = -0.000876588
DILUPBiCG:  Solving for epsilon, Initial residual = 0.0109736, Final residual = 0.000776875, No Iterations 1
DILUPBiCG:  Solving for k, Initial residual = 0.00727735, Final residual = 0.000513306, No Iterations 1
ExecutionTime = 203.16 s  ClockTime = 214 s

Time = 56

DILUPBiCG:  Solving for Ux, Initial residual = 0.00138408, Final residual = 6.4549e-06, No Iterations 1
DILUPBiCG:  Solving for Uy, Initial residual = 0.00454855, Final residual = 7.02396e-06, No Iterations 1
DILUPBiCG:  Solving for Uz, Initial residual = 0.00357301, Final residual = 2.00711e-05, No Iterations 1
DICPCG:  Solving for p, Initial residual = 0.10777, Final residual = 0.00104607, No Iterations 567
time step continuity errors : sum local = 0.0018594, global = 9.39787e-06, cumulative = -0.00086719
DILUPBiCG:  Solving for epsilon, Initial residual = 0.010695, Final residual = 0.000757489, No Iterations 1
DILUPBiCG:  Solving for k, Initial residual = 0.0071037, Final residual = 0.000500917, No Iterations 1
ExecutionTime = 208.41 s  ClockTime = 219 s

Time = 57

DILUPBiCG:  Solving for Ux, Initial residual = 0.00135579, Final residual = 6.30189e-06, No Iterations 1
DILUPBiCG:  Solving for Uy, Initial residual = 0.00466077, Final residual = 7.2453e-06, No Iterations 1
DILUPBiCG:  Solving for Uz, Initial residual = 0.00352436, Final residual = 1.9773e-05, No Iterations 1
DICPCG:  Solving for p, Initial residual = 0.093586, Final residual = 0.000914327, No Iterations 575
time step continuity errors : sum local = 0.0018091, global = 1.17676e-05, cumulative = -0.000855423
DILUPBiCG:  Solving for epsilon, Initial residual = 0.0104274, Final residual = 0.000738464, No Iterations 1
DILUPBiCG:  Solving for k, Initial residual = 0.00693813, Final residual = 0.000489151, No Iterations 1
ExecutionTime = 212.53 s  ClockTime = 223 s

Time = 58

DILUPBiCG:  Solving for Ux, Initial residual = 0.00132971, Final residual = 6.1731e-06, No Iterations 1
DILUPBiCG:  Solving for Uy, Initial residual = 0.00451836, Final residual = 7.04489e-06, No Iterations 1
DILUPBiCG:  Solving for Uz, Initial residual = 0.00348035, Final residual = 1.94885e-05, No Iterations 1
DICPCG:  Solving for p, Initial residual = 0.0873203, Final residual = 0.000802109, No Iterations 26
time step continuity errors : sum local = 0.0016576, global = 1.80313e-05, cumulative = -0.000837391
DILUPBiCG:  Solving for epsilon, Initial residual = 0.0101695, Final residual = 0.000720041, No Iterations 1
DILUPBiCG:  Solving for k, Initial residual = 0.00677838, Final residual = 0.000477862, No Iterations 1
ExecutionTime = 213.54 s  ClockTime = 224 s

Time = 59

DILUPBiCG:  Solving for Ux, Initial residual = 0.00130471, Final residual = 6.05493e-06, No Iterations 1
DILUPBiCG:  Solving for Uy, Initial residual = 0.00430928, Final residual = 6.51797e-06, No Iterations 1
DILUPBiCG:  Solving for Uz, Initial residual = 0.00343845, Final residual = 1.92265e-05, No Iterations 1
DICPCG:  Solving for p, Initial residual = 0.0869896, Final residual = 0.000864938, No Iterations 43
time step continuity errors : sum local = 0.00175021, global = 0.000150802, cumulative = -0.000686589
DILUPBiCG:  Solving for epsilon, Initial residual = 0.00992224, Final residual = 0.00070263, No Iterations 1
DILUPBiCG:  Solving for k, Initial residual = 0.00662478, Final residual = 0.000467146, No Iterations 1
ExecutionTime = 214.6 s  ClockTime = 225 s

Time = 60

DILUPBiCG:  Solving for Ux, Initial residual = 0.00128086, Final residual = 5.94519e-06, No Iterations 1
DILUPBiCG:  Solving for Uy, Initial residual = 0.00413979, Final residual = 6.31005e-06, No Iterations 1
DILUPBiCG:  Solving for Uz, Initial residual = 0.00339763, Final residual = 1.89734e-05, No Iterations 1
DICPCG:  Solving for p, Initial residual = 0.0850307, Final residual = 0.000835442, No Iterations 58
time step continuity errors : sum local = 0.00165521, global = 0.000283488, cumulative = -0.000403101
DILUPBiCG:  Solving for epsilon, Initial residual = 0.00968371, Final residual = 0.000685825, No Iterations 1
DILUPBiCG:  Solving for k, Initial residual = 0.00647539, Final residual = 0.000456511, No Iterations 1
ExecutionTime = 216.85 s  ClockTime = 228 s

Time = 61

DILUPBiCG:  Solving for Ux, Initial residual = 0.00125812, Final residual = 5.83757e-06, No Iterations 1
DILUPBiCG:  Solving for Uy, Initial residual = 0.00403884, Final residual = 6.33661e-06, No Iterations 1
DILUPBiCG:  Solving for Uz, Initial residual = 0.0033587, Final residual = 1.87327e-05, No Iterations 1
DICPCG:  Solving for p, Initial residual = 0.0836323, Final residual = 0.000826589, No Iterations 563
time step continuity errors : sum local = 0.00160747, global = -7.41436e-06, cumulative = -0.000410516
DILUPBiCG:  Solving for epsilon, Initial residual = 0.00945409, Final residual = 0.000669404, No Iterations 1
DILUPBiCG:  Solving for k, Initial residual = 0.00633173, Final residual = 0.000446422, No Iterations 1
ExecutionTime = 219.9 s  ClockTime = 231 s

Time = 62

DILUPBiCG:  Solving for Ux, Initial residual = 0.00123572, Final residual = 5.75525e-06, No Iterations 1
DILUPBiCG:  Solving for Uy, Initial residual = 0.00408284, Final residual = 6.43072e-06, No Iterations 1
DILUPBiCG:  Solving for Uz, Initial residual = 0.00332338, Final residual = 1.85234e-05, No Iterations 1
DICPCG:  Solving for p, Initial residual = 0.0951941, Final residual = 0.000944331, No Iterations 44
time step continuity errors : sum local = 0.00152907, global = 0.000269001, cumulative = -0.000141515
DILUPBiCG:  Solving for epsilon, Initial residual = 0.00923212, Final residual = 0.000653818, No Iterations 1
DILUPBiCG:  Solving for k, Initial residual = 0.00619282, Final residual = 0.000436582, No Iterations 1
ExecutionTime = 221.05 s  ClockTime = 232 s

Time = 63

DILUPBiCG:  Solving for Ux, Initial residual = 0.00121469, Final residual = 5.65927e-06, No Iterations 1
DILUPBiCG:  Solving for Uy, Initial residual = 0.00382902, Final residual = 6.01345e-06, No Iterations 1
DILUPBiCG:  Solving for Uz, Initial residual = 0.00328664, Final residual = 1.82926e-05, No Iterations 1
DICPCG:  Solving for p, Initial residual = 0.0934478, Final residual = 0.000918468, No Iterations 49
time step continuity errors : sum local = 0.00145766, global = 0.00022659, cumulative = 8.50751e-05
DILUPBiCG:  Solving for epsilon, Initial residual = 0.0090179, Final residual = 0.000638403, No Iterations 1
DILUPBiCG:  Solving for k, Initial residual = 0.00605955, Final residual = 0.00042724, No Iterations 1
ExecutionTime = 222.68 s  ClockTime = 234 s

Time = 64

DILUPBiCG:  Solving for Ux, Initial residual = 0.00119467, Final residual = 5.58314e-06, No Iterations 1
DILUPBiCG:  Solving for Uy, Initial residual = 0.00374941, Final residual = 5.963e-06, No Iterations 1
DILUPBiCG:  Solving for Uz, Initial residual = 0.00325135, Final residual = 1.80601e-05, No Iterations 1
DICPCG:  Solving for p, Initial residual = 0.0924285, Final residual = 0.000884453, No Iterations 49
time step continuity errors : sum local = 0.00137534, global = 0.000188981, cumulative = 0.000274056
DILUPBiCG:  Solving for epsilon, Initial residual = 0.0088116, Final residual = 0.000623646, No Iterations 1
DILUPBiCG:  Solving for k, Initial residual = 0.0059306, Final residual = 0.000418075, No Iterations 1
ExecutionTime = 223.9 s  ClockTime = 235 s

Time = 65

DILUPBiCG:  Solving for Ux, Initial residual = 0.00117536, Final residual = 5.49412e-06, No Iterations 1
DILUPBiCG:  Solving for Uy, Initial residual = 0.003725, Final residual = 5.98837e-06, No Iterations 1
DILUPBiCG:  Solving for Uz, Initial residual = 0.00321716, Final residual = 1.78483e-05, No Iterations 1
DICPCG:  Solving for p, Initial residual = 0.0902185, Final residual = 0.000900993, No Iterations 20
time step continuity errors : sum local = 0.00137483, global = 0.000156682, cumulative = 0.000430738
DILUPBiCG:  Solving for epsilon, Initial residual = 0.00861198, Final residual = 0.00060919, No Iterations 1
DILUPBiCG:  Solving for k, Initial residual = 0.00580623, Final residual = 0.000409528, No Iterations 1
ExecutionTime = 224.85 s  ClockTime = 236 s

Time = 66

DILUPBiCG:  Solving for Ux, Initial residual = 0.00115721, Final residual = 5.4262e-06, No Iterations 1
DILUPBiCG:  Solving for Uy, Initial residual = 0.00363381, Final residual = 5.84242e-06, No Iterations 1
DILUPBiCG:  Solving for Uz, Initial residual = 0.00318463, Final residual = 1.76503e-05, No Iterations 1
DICPCG:  Solving for p, Initial residual = 0.0910461, Final residual = 0.000909642, No Iterations 23
time step continuity errors : sum local = 0.00136178, global = 0.000134791, cumulative = 0.000565528
DILUPBiCG:  Solving for epsilon, Initial residual = 0.00841918, Final residual = 0.000595686, No Iterations 1
DILUPBiCG:  Solving for k, Initial residual = 0.00568481, Final residual = 0.000400935, No Iterations 1
ExecutionTime = 226.09 s  ClockTime = 237 s

Time = 67

DILUPBiCG:  Solving for Ux, Initial residual = 0.00113971, Final residual = 5.35152e-06, No Iterations 1
DILUPBiCG:  Solving for Uy, Initial residual = 0.00353292, Final residual = 5.80583e-06, No Iterations 1
DILUPBiCG:  Solving for Uz, Initial residual = 0.00315314, Final residual = 1.74497e-05, No Iterations 1
DICPCG:  Solving for p, Initial residual = 0.0879166, Final residual = 0.000849778, No Iterations 57
time step continuity errors : sum local = 0.0012473, global = 8.95058e-05, cumulative = 0.000655034
DILUPBiCG:  Solving for epsilon, Initial residual = 0.00823226, Final residual = 0.000582603, No Iterations 1
DILUPBiCG:  Solving for k, Initial residual = 0.00556868, Final residual = 0.000392812, No Iterations 1
ExecutionTime = 228.21 s  ClockTime = 239 s

Time = 68

DILUPBiCG:  Solving for Ux, Initial residual = 0.0011232, Final residual = 5.23422e-06, No Iterations 1
DILUPBiCG:  Solving for Uy, Initial residual = 0.00347425, Final residual = 5.76808e-06, No Iterations 1
DILUPBiCG:  Solving for Uz, Initial residual = 0.00312332, Final residual = 1.7268e-05, No Iterations 1
DICPCG:  Solving for p, Initial residual = 0.0893674, Final residual = 0.000853759, No Iterations 25
time step continuity errors : sum local = 0.001233, global = 7.55636e-05, cumulative = 0.000730598
DILUPBiCG:  Solving for epsilon, Initial residual = 0.00805156, Final residual = 0.000569821, No Iterations 1
DILUPBiCG:  Solving for k, Initial residual = 0.00545547, Final residual = 0.000384791, No Iterations 1
ExecutionTime = 229.37 s  ClockTime = 240 s

Time = 69

DILUPBiCG:  Solving for Ux, Initial residual = 0.00110711, Final residual = 5.21869e-06, No Iterations 1
DILUPBiCG:  Solving for Uy, Initial residual = 0.00335367, Final residual = 5.47281e-06, No Iterations 1
DILUPBiCG:  Solving for Uz, Initial residual = 0.00309321, Final residual = 1.70485e-05, No Iterations 1
DICPCG:  Solving for p, Initial residual = 0.0858495, Final residual = 0.000815265, No Iterations 28
time step continuity errors : sum local = 0.00115565, global = 3.93967e-05, cumulative = 0.000769995
DILUPBiCG:  Solving for epsilon, Initial residual = 0.00787639, Final residual = 0.000557302, No Iterations 1
DILUPBiCG:  Solving for k, Initial residual = 0.00534566, Final residual = 0.00037686, No Iterations 1
ExecutionTime = 230.73 s  ClockTime = 242 s

Time = 70

DILUPBiCG:  Solving for Ux, Initial residual = 0.00109177, Final residual = 5.12252e-06, No Iterations 1
DILUPBiCG:  Solving for Uy, Initial residual = 0.00321147, Final residual = 5.4199e-06, No Iterations 1
DILUPBiCG:  Solving for Uz, Initial residual = 0.00306535, Final residual = 1.68907e-05, No Iterations 1
DICPCG:  Solving for p, Initial residual = 0.0865331, Final residual = 0.00084577, No Iterations 292
time step continuity errors : sum local = 0.00118082, global = 5.74614e-05, cumulative = 0.000827456
DILUPBiCG:  Solving for epsilon, Initial residual = 0.00770656, Final residual = 0.000545352, No Iterations 1
DILUPBiCG:  Solving for k, Initial residual = 0.00523926, Final residual = 0.000369416, No Iterations 1
ExecutionTime = 233.03 s  ClockTime = 244 s

Time = 71

DILUPBiCG:  Solving for Ux, Initial residual = 0.00107706, Final residual = 5.06618e-06, No Iterations 1
DILUPBiCG:  Solving for Uy, Initial residual = 0.00313376, Final residual = 5.06709e-06, No Iterations 1
DILUPBiCG:  Solving for Uz, Initial residual = 0.00303779, Final residual = 1.66962e-05, No Iterations 1
DICPCG:  Solving for p, Initial residual = 0.0834617, Final residual = 0.000804106, No Iterations 17
time step continuity errors : sum local = 0.00111605, global = 3.82269e-06, cumulative = 0.000831279
DILUPBiCG:  Solving for epsilon, Initial residual = 0.00754148, Final residual = 0.000533587, No Iterations 1
DILUPBiCG:  Solving for k, Initial residual = 0.00513538, Final residual = 0.000362122, No Iterations 1
ExecutionTime = 234.32 s  ClockTime = 245 s

Time = 72

DILUPBiCG:  Solving for Ux, Initial residual = 0.0010628, Final residual = 4.95491e-06, No Iterations 1
DILUPBiCG:  Solving for Uy, Initial residual = 0.00307466, Final residual = 5.02588e-06, No Iterations 1
DILUPBiCG:  Solving for Uz, Initial residual = 0.00301174, Final residual = 1.65533e-05, No Iterations 1
DICPCG:  Solving for p, Initial residual = 0.0825128, Final residual = 0.000816837, No Iterations 25
time step continuity errors : sum local = 0.00111772, global = -6.36153e-06, cumulative = 0.000824917
DILUPBiCG:  Solving for epsilon, Initial residual = 0.00738205, Final residual = 0.000522301, No Iterations 1
DILUPBiCG:  Solving for k, Initial residual = 0.00503542, Final residual = 0.000355164, No Iterations 1
ExecutionTime = 235.4 s  ClockTime = 247 s

Time = 73

DILUPBiCG:  Solving for Ux, Initial residual = 0.00104925, Final residual = 4.9159e-06, No Iterations 1
DILUPBiCG:  Solving for Uy, Initial residual = 0.00306134, Final residual = 4.9567e-06, No Iterations 1
DILUPBiCG:  Solving for Uz, Initial residual = 0.00298573, Final residual = 1.63881e-05, No Iterations 1
DICPCG:  Solving for p, Initial residual = 0.0820142, Final residual = 0.000767557, No Iterations 37
time step continuity errors : sum local = 0.00103419, global = -1.95764e-05, cumulative = 0.000805341
DILUPBiCG:  Solving for epsilon, Initial residual = 0.00722699, Final residual = 0.000511318, No Iterations 1
DILUPBiCG:  Solving for k, Initial residual = 0.00493829, Final residual = 0.00034844, No Iterations 1
ExecutionTime = 236.4 s  ClockTime = 248 s

Time = 74

DILUPBiCG:  Solving for Ux, Initial residual = 0.00103604, Final residual = 4.79479e-06, No Iterations 1
DILUPBiCG:  Solving for Uy, Initial residual = 0.00304446, Final residual = 5.00548e-06, No Iterations 1
DILUPBiCG:  Solving for Uz, Initial residual = 0.00295945, Final residual = 1.62239e-05, No Iterations 1
DICPCG:  Solving for p, Initial residual = 0.0802301, Final residual = 0.000794824, No Iterations 110
time step continuity errors : sum local = 0.00105558, global = -5.35619e-05, cumulative = 0.000751779
DILUPBiCG:  Solving for epsilon, Initial residual = 0.00707707, Final residual = 0.000500853, No Iterations 1
DILUPBiCG:  Solving for k, Initial residual = 0.00484442, Final residual = 0.000341799, No Iterations 1
ExecutionTime = 237.68 s  ClockTime = 249 s

Time = 75

DILUPBiCG:  Solving for Ux, Initial residual = 0.00102327, Final residual = 4.80394e-06, No Iterations 1
DILUPBiCG:  Solving for Uy, Initial residual = 0.00307603, Final residual = 5.20947e-06, No Iterations 1
DILUPBiCG:  Solving for Uz, Initial residual = 0.00293489, Final residual = 1.60753e-05, No Iterations 1
DICPCG:  Solving for p, Initial residual = 0.0814491, Final residual = 0.000788435, No Iterations 28
time step continuity errors : sum local = 0.00103356, global = -6.70436e-05, cumulative = 0.000684735
DILUPBiCG:  Solving for epsilon, Initial residual = 0.0069316, Final residual = 0.000490522, No Iterations 1
DILUPBiCG:  Solving for k, Initial residual = 0.00475294, Final residual = 0.000335349, No Iterations 1
ExecutionTime = 238.77 s  ClockTime = 250 s

Time = 76

DILUPBiCG:  Solving for Ux, Initial residual = 0.00101074, Final residual = 4.68958e-06, No Iterations 1
DILUPBiCG:  Solving for Uy, Initial residual = 0.00303159, Final residual = 5.18178e-06, No Iterations 1
DILUPBiCG:  Solving for Uz, Initial residual = 0.00291036, Final residual = 1.59262e-05, No Iterations 1
DICPCG:  Solving for p, Initial residual = 0.0787437, Final residual = 0.000776383, No Iterations 288
time step continuity errors : sum local = 0.00100274, global = -9.07428e-05, cumulative = 0.000593993
DILUPBiCG:  Solving for epsilon, Initial residual = 0.00679097, Final residual = 0.000480672, No Iterations 1
DILUPBiCG:  Solving for k, Initial residual = 0.00466478, Final residual = 0.000329248, No Iterations 1
ExecutionTime = 241.93 s  ClockTime = 253 s

Time = 77

DILUPBiCG:  Solving for Ux, Initial residual = 0.0009986, Final residual = 4.68541e-06, No Iterations 1
DILUPBiCG:  Solving for Uy, Initial residual = 0.00302287, Final residual = 5.18529e-06, No Iterations 1
DILUPBiCG:  Solving for Uz, Initial residual = 0.00288789, Final residual = 1.57911e-05, No Iterations 1
DICPCG:  Solving for p, Initial residual = 0.0792763, Final residual = 0.000791939, No Iterations 23
time step continuity errors : sum local = 0.000995577, global = -0.00012017, cumulative = 0.000473822
DILUPBiCG:  Solving for epsilon, Initial residual = 0.00665487, Final residual = 0.000471101, No Iterations 1
DILUPBiCG:  Solving for k, Initial residual = 0.00457944, Final residual = 0.00032323, No Iterations 1
ExecutionTime = 243.35 s  ClockTime = 255 s

Time = 78

DILUPBiCG:  Solving for Ux, Initial residual = 0.000986986, Final residual = 4.61424e-06, No Iterations 1
DILUPBiCG:  Solving for Uy, Initial residual = 0.00297724, Final residual = 4.93321e-06, No Iterations 1
DILUPBiCG:  Solving for Uz, Initial residual = 0.00286491, Final residual = 1.56202e-05, No Iterations 1
DICPCG:  Solving for p, Initial residual = 0.0774285, Final residual = 0.000756276, No Iterations 29
time step continuity errors : sum local = 0.000939214, global = -0.000144251, cumulative = 0.000329571
DILUPBiCG:  Solving for epsilon, Initial residual = 0.00652222, Final residual = 0.000461803, No Iterations 1
DILUPBiCG:  Solving for k, Initial residual = 0.00449714, Final residual = 0.000317537, No Iterations 1
ExecutionTime = 244.33 s  ClockTime = 256 s

Time = 79

DILUPBiCG:  Solving for Ux, Initial residual = 0.000975713, Final residual = 4.5646e-06, No Iterations 1
DILUPBiCG:  Solving for Uy, Initial residual = 0.00295701, Final residual = 4.94716e-06, No Iterations 1
DILUPBiCG:  Solving for Uz, Initial residual = 0.00284268, Final residual = 1.55043e-05, No Iterations 1
DICPCG:  Solving for p, Initial residual = 0.0767134, Final residual = 0.000752193, No Iterations 56
time step continuity errors : sum local = 0.000923003, global = -0.000148866, cumulative = 0.000180706
DILUPBiCG:  Solving for epsilon, Initial residual = 0.00639411, Final residual = 0.000452768, No Iterations 1
DILUPBiCG:  Solving for k, Initial residual = 0.00441681, Final residual = 0.000311889, No Iterations 1
ExecutionTime = 245.49 s  ClockTime = 257 s

Time = 80

DILUPBiCG:  Solving for Ux, Initial residual = 0.000964842, Final residual = 4.52601e-06, No Iterations 1
DILUPBiCG:  Solving for Uy, Initial residual = 0.00292563, Final residual = 4.99472e-06, No Iterations 1
DILUPBiCG:  Solving for Uz, Initial residual = 0.0028211, Final residual = 1.53553e-05, No Iterations 1
DICPCG:  Solving for p, Initial residual = 0.0743224, Final residual = 0.000698498, No Iterations 28
time step continuity errors : sum local = 0.000847261, global = -0.000182219, cumulative = -1.51367e-06
DILUPBiCG:  Solving for epsilon, Initial residual = 0.00626922, Final residual = 0.00044405, No Iterations 1
DILUPBiCG:  Solving for k, Initial residual = 0.00433922, Final residual = 0.000306668, No Iterations 1
ExecutionTime = 246.62 s  ClockTime = 258 s

Time = 81

DILUPBiCG:  Solving for Ux, Initial residual = 0.000954324, Final residual = 4.46294e-06, No Iterations 1
DILUPBiCG:  Solving for Uy, Initial residual = 0.00285234, Final residual = 4.69892e-06, No Iterations 1
DILUPBiCG:  Solving for Uz, Initial residual = 0.00279972, Final residual = 1.52216e-05, No Iterations 1
DICPCG:  Solving for p, Initial residual = 0.0722845, Final residual = 0.000701329, No Iterations 134
time step continuity errors : sum local = 0.000840845, global = -0.000131751, cumulative = -0.000133265
DILUPBiCG:  Solving for epsilon, Initial residual = 0.00614883, Final residual = 0.000435323, No Iterations 1
DILUPBiCG:  Solving for k, Initial residual = 0.00426434, Final residual = 0.000301453, No Iterations 1
ExecutionTime = 248.07 s  ClockTime = 260 s

Time = 82

DILUPBiCG:  Solving for Ux, Initial residual = 0.000944113, Final residual = 4.40842e-06, No Iterations 1
DILUPBiCG:  Solving for Uy, Initial residual = 0.00279264, Final residual = 4.69866e-06, No Iterations 1
DILUPBiCG:  Solving for Uz, Initial residual = 0.00277919, Final residual = 1.5086e-05, No Iterations 1
DICPCG:  Solving for p, Initial residual = 0.0719259, Final residual = 0.000656552, No Iterations 28
time step continuity errors : sum local = 0.000781333, global = -0.000170331, cumulative = -0.000303596
DILUPBiCG:  Solving for epsilon, Initial residual = 0.00602989, Final residual = 0.000426857, No Iterations 1
DILUPBiCG:  Solving for k, Initial residual = 0.00419054, Final residual = 0.0002964, No Iterations 1
ExecutionTime = 249.04 s  ClockTime = 260 s

Time = 83

DILUPBiCG:  Solving for Ux, Initial residual = 0.000934283, Final residual = 4.34973e-06, No Iterations 1
DILUPBiCG:  Solving for Uy, Initial residual = 0.00277395, Final residual = 4.5401e-06, No Iterations 1
DILUPBiCG:  Solving for Uz, Initial residual = 0.00275899, Final residual = 1.49998e-05, No Iterations 1
DICPCG:  Solving for p, Initial residual = 0.0712392, Final residual = 0.000652621, No Iterations 56
time step continuity errors : sum local = 0.000768662, global = -0.000171334, cumulative = -0.00047493
DILUPBiCG:  Solving for epsilon, Initial residual = 0.00591464, Final residual = 0.000418464, No Iterations 1
DILUPBiCG:  Solving for k, Initial residual = 0.00411994, Final residual = 0.00029166, No Iterations 1
ExecutionTime = 250.14 s  ClockTime = 262 s

Time = 84

DILUPBiCG:  Solving for Ux, Initial residual = 0.000924739, Final residual = 4.32042e-06, No Iterations 1
DILUPBiCG:  Solving for Uy, Initial residual = 0.00279846, Final residual = 4.63326e-06, No Iterations 1
DILUPBiCG:  Solving for Uz, Initial residual = 0.00273891, Final residual = 1.48414e-05, No Iterations 1
DICPCG:  Solving for p, Initial residual = 0.071111, Final residual = 0.000710162, No Iterations 29
time step continuity errors : sum local = 0.000828497, global = -0.000165233, cumulative = -0.000640163
DILUPBiCG:  Solving for epsilon, Initial residual = 0.00580145, Final residual = 0.000410518, No Iterations 1
DILUPBiCG:  Solving for k, Initial residual = 0.0040504, Final residual = 0.000286963, No Iterations 1
ExecutionTime = 251.11 s  ClockTime = 263 s

Time = 85

DILUPBiCG:  Solving for Ux, Initial residual = 0.000915436, Final residual = 4.26743e-06, No Iterations 1
DILUPBiCG:  Solving for Uy, Initial residual = 0.00280859, Final residual = 4.53509e-06, No Iterations 1
DILUPBiCG:  Solving for Uz, Initial residual = 0.00271944, Final residual = 1.47607e-05, No Iterations 1
DICPCG:  Solving for p, Initial residual = 0.0705337, Final residual = 0.000676738, No Iterations 603
time step continuity errors : sum local = 0.000781281, global = -2.98039e-06, cumulative = -0.000643144
DILUPBiCG:  Solving for epsilon, Initial residual = 0.00569222, Final residual = 0.000402817, No Iterations 1
DILUPBiCG:  Solving for k, Initial residual = 0.00398388, Final residual = 0.00028245, No Iterations 1
ExecutionTime = 254.17 s  ClockTime = 266 s

Time = 86

DILUPBiCG:  Solving for Ux, Initial residual = 0.000906497, Final residual = 4.22523e-06, No Iterations 1
DILUPBiCG:  Solving for Uy, Initial residual = 0.00285427, Final residual = 4.68003e-06, No Iterations 1
DILUPBiCG:  Solving for Uz, Initial residual = 0.00269991, Final residual = 1.45931e-05, No Iterations 1
DICPCG:  Solving for p, Initial residual = 0.0637455, Final residual = 0.000590827, No Iterations 28
time step continuity errors : sum local = 0.000741012, global = -4.63587e-05, cumulative = -0.000689502
DILUPBiCG:  Solving for epsilon, Initial residual = 0.00558512, Final residual = 0.000395219, No Iterations 1
DILUPBiCG:  Solving for k, Initial residual = 0.0039183, Final residual = 0.000278111, No Iterations 1
ExecutionTime = 255.25 s  ClockTime = 267 s

Time = 87

DILUPBiCG:  Solving for Ux, Initial residual = 0.000897654, Final residual = 4.17879e-06, No Iterations 1
DILUPBiCG:  Solving for Uy, Initial residual = 0.00277877, Final residual = 4.57125e-06, No Iterations 1
DILUPBiCG:  Solving for Uz, Initial residual = 0.00268162, Final residual = 1.45173e-05, No Iterations 1
DICPCG:  Solving for p, Initial residual = 0.0635949, Final residual = 0.000599107, No Iterations 40
time step continuity errors : sum local = 0.00074664, global = 1.46671e-05, cumulative = -0.000674835
DILUPBiCG:  Solving for epsilon, Initial residual = 0.00548189, Final residual = 0.000387943, No Iterations 1
DILUPBiCG:  Solving for k, Initial residual = 0.0038557, Final residual = 0.000273947, No Iterations 1
ExecutionTime = 256.26 s  ClockTime = 268 s

Time = 88

DILUPBiCG:  Solving for Ux, Initial residual = 0.000889009, Final residual = 4.12559e-06, No Iterations 1
DILUPBiCG:  Solving for Uy, Initial residual = 0.0027294, Final residual = 4.49256e-06, No Iterations 1
DILUPBiCG:  Solving for Uz, Initial residual = 0.00266374, Final residual = 1.43755e-05, No Iterations 1
DICPCG:  Solving for p, Initial residual = 0.0617585, Final residual = 0.000616047, No Iterations 67
time step continuity errors : sum local = 0.00076323, global = 8.65912e-05, cumulative = -0.000588244
DILUPBiCG:  Solving for epsilon, Initial residual = 0.00538029, Final residual = 0.00038072, No Iterations 1
DILUPBiCG:  Solving for k, Initial residual = 0.0037939, Final residual = 0.000269862, No Iterations 1
ExecutionTime = 257.36 s  ClockTime = 269 s

Time = 89

DILUPBiCG:  Solving for Ux, Initial residual = 0.000880536, Final residual = 4.09183e-06, No Iterations 1
DILUPBiCG:  Solving for Uy, Initial residual = 0.00268709, Final residual = 4.55468e-06, No Iterations 1
DILUPBiCG:  Solving for Uz, Initial residual = 0.00264562, Final residual = 1.4266e-05, No Iterations 1
DICPCG:  Solving for p, Initial residual = 0.0600879, Final residual = 0.000594527, No Iterations 571
time step continuity errors : sum local = 0.000732969, global = 8.18373e-06, cumulative = -0.00058006
DILUPBiCG:  Solving for epsilon, Initial residual = 0.0052823, Final residual = 0.00037378, No Iterations 1
DILUPBiCG:  Solving for k, Initial residual = 0.0037351, Final residual = 0.000265938, No Iterations 1
ExecutionTime = 260.43 s  ClockTime = 272 s

Time = 90

DILUPBiCG:  Solving for Ux, Initial residual = 0.000872358, Final residual = 4.05305e-06, No Iterations 1
DILUPBiCG:  Solving for Uy, Initial residual = 0.0027225, Final residual = 4.61326e-06, No Iterations 1
DILUPBiCG:  Solving for Uz, Initial residual = 0.00262849, Final residual = 1.416e-05, No Iterations 1
DICPCG:  Solving for p, Initial residual = 0.06439, Final residual = 0.000639177, No Iterations 26
time step continuity errors : sum local = 0.000714971, global = 9.79128e-05, cumulative = -0.000482147
DILUPBiCG:  Solving for epsilon, Initial residual = 0.0051855, Final residual = 0.00036694, No Iterations 1
DILUPBiCG:  Solving for k, Initial residual = 0.00367612, Final residual = 0.000262118, No Iterations 1
ExecutionTime = 261.36 s  ClockTime = 273 s

Time = 91

DILUPBiCG:  Solving for Ux, Initial residual = 0.000864336, Final residual = 4.01052e-06, No Iterations 1
DILUPBiCG:  Solving for Uy, Initial residual = 0.00261683, Final residual = 4.47089e-06, No Iterations 1
DILUPBiCG:  Solving for Uz, Initial residual = 0.00261066, Final residual = 1.40504e-05, No Iterations 1
DICPCG:  Solving for p, Initial residual = 0.0621874, Final residual = 0.000621332, No Iterations 30
time step continuity errors : sum local = 0.000690625, global = 9.00671e-05, cumulative = -0.00039208
DILUPBiCG:  Solving for epsilon, Initial residual = 0.00509218, Final residual = 0.000360395, No Iterations 1
DILUPBiCG:  Solving for k, Initial residual = 0.00361989, Final residual = 0.00025851, No Iterations 1
ExecutionTime = 262.31 s  ClockTime = 274 s

Time = 92

DILUPBiCG:  Solving for Ux, Initial residual = 0.000856576, Final residual = 3.97835e-06, No Iterations 1
DILUPBiCG:  Solving for Uy, Initial residual = 0.00257664, Final residual = 4.28943e-06, No Iterations 1
DILUPBiCG:  Solving for Uz, Initial residual = 0.00259377, Final residual = 1.39579e-05, No Iterations 1
DICPCG:  Solving for p, Initial residual = 0.0625109, Final residual = 0.000619548, No Iterations 47
time step continuity errors : sum local = 0.000685778, global = 9.43839e-05, cumulative = -0.000297696
DILUPBiCG:  Solving for epsilon, Initial residual = 0.00500021, Final residual = 0.000353953, No Iterations 1
DILUPBiCG:  Solving for k, Initial residual = 0.0035639, Final residual = 0.000255074, No Iterations 1
ExecutionTime = 263.29 s  ClockTime = 275 s

Time = 93

DILUPBiCG:  Solving for Ux, Initial residual = 0.000848952, Final residual = 3.93837e-06, No Iterations 1
DILUPBiCG:  Solving for Uy, Initial residual = 0.00257175, Final residual = 4.2631e-06, No Iterations 1
DILUPBiCG:  Solving for Uz, Initial residual = 0.00257668, Final residual = 1.3863e-05, No Iterations 1
DICPCG:  Solving for p, Initial residual = 0.061075, Final residual = 0.00060097, No Iterations 54
time step continuity errors : sum local = 0.00066075, global = 9.52406e-05, cumulative = -0.000202456
DILUPBiCG:  Solving for epsilon, Initial residual = 0.0049114, Final residual = 0.00034771, No Iterations 1
DILUPBiCG:  Solving for k, Initial residual = 0.00351107, Final residual = 0.00025156, No Iterations 1
ExecutionTime = 264.31 s  ClockTime = 276 s

Time = 94

DILUPBiCG:  Solving for Ux, Initial residual = 0.000841481, Final residual = 3.90994e-06, No Iterations 1
DILUPBiCG:  Solving for Uy, Initial residual = 0.00254352, Final residual = 4.24277e-06, No Iterations 1
DILUPBiCG:  Solving for Uz, Initial residual = 0.00255991, Final residual = 1.37749e-05, No Iterations 1
DICPCG:  Solving for p, Initial residual = 0.061297, Final residual = 0.00060804, No Iterations 29
time step continuity errors : sum local = 0.000664863, global = 7.79132e-05, cumulative = -0.000124543
DILUPBiCG:  Solving for epsilon, Initial residual = 0.00482419, Final residual = 0.000341576, No Iterations 1
DILUPBiCG:  Solving for k, Initial residual = 0.00345814, Final residual = 0.000248441, No Iterations 1
ExecutionTime = 265.25 s  ClockTime = 277 s

Time = 95

DILUPBiCG:  Solving for Ux, Initial residual = 0.000834232, Final residual = 3.87061e-06, No Iterations 1
DILUPBiCG:  Solving for Uy, Initial residual = 0.00253768, Final residual = 4.25425e-06, No Iterations 1
DILUPBiCG:  Solving for Uz, Initial residual = 0.0025433, Final residual = 1.36901e-05, No Iterations 1
DICPCG:  Solving for p, Initial residual = 0.0601223, Final residual = 0.000560242, No Iterations 596
time step continuity errors : sum local = 0.000609149, global = -3.92831e-06, cumulative = -0.000128471
DILUPBiCG:  Solving for epsilon, Initial residual = 0.00473959, Final residual = 0.000335664, No Iterations 1
DILUPBiCG:  Solving for k, Initial residual = 0.00340718, Final residual = 0.000245143, No Iterations 1
ExecutionTime = 268.56 s  ClockTime = 280 s

Time = 96

DILUPBiCG:  Solving for Ux, Initial residual = 0.000827295, Final residual = 3.84369e-06, No Iterations 1
DILUPBiCG:  Solving for Uy, Initial residual = 0.00261169, Final residual = 4.45563e-06, No Iterations 1
DILUPBiCG:  Solving for Uz, Initial residual = 0.00252773, Final residual = 1.35812e-05, No Iterations 1
DICPCG:  Solving for p, Initial residual = 0.0641503, Final residual = 0.000616743, No Iterations 50
time step continuity errors : sum local = 0.000624229, global = 1.44751e-05, cumulative = -0.000113996
DILUPBiCG:  Solving for epsilon, Initial residual = 0.00465628, Final residual = 0.000329776, No Iterations 1
DILUPBiCG:  Solving for k, Initial residual = 0.00335725, Final residual = 0.000242388, No Iterations 1
ExecutionTime = 269.96 s  ClockTime = 282 s

Time = 97

DILUPBiCG:  Solving for Ux, Initial residual = 0.00082033, Final residual = 3.81216e-06, No Iterations 1
DILUPBiCG:  Solving for Uy, Initial residual = 0.00255053, Final residual = 4.37236e-06, No Iterations 1
DILUPBiCG:  Solving for Uz, Initial residual = 0.00251124, Final residual = 1.34966e-05, No Iterations 1
DICPCG:  Solving for p, Initial residual = 0.0624206, Final residual = 0.000611039, No Iterations 40
time step continuity errors : sum local = 0.000615694, global = -2.97336e-05, cumulative = -0.000143729
DILUPBiCG:  Solving for epsilon, Initial residual = 0.00457553, Final residual = 0.000324139, No Iterations 1
DILUPBiCG:  Solving for k, Initial residual = 0.00330984, Final residual = 0.000239833, No Iterations 1
ExecutionTime = 271.25 s  ClockTime = 283 s

Time = 98

DILUPBiCG:  Solving for Ux, Initial residual = 0.00081352, Final residual = 3.77657e-06, No Iterations 1
DILUPBiCG:  Solving for Uy, Initial residual = 0.00250652, Final residual = 4.34725e-06, No Iterations 1
DILUPBiCG:  Solving for Uz, Initial residual = 0.00249528, Final residual = 1.33754e-05, No Iterations 1
DICPCG:  Solving for p, Initial residual = 0.0611442, Final residual = 0.000610736, No Iterations 44
time step continuity errors : sum local = 0.00061225, global = -6.84328e-05, cumulative = -0.000212162
DILUPBiCG:  Solving for epsilon, Initial residual = 0.00449588, Final residual = 0.000318484, No Iterations 1
DILUPBiCG:  Solving for k, Initial residual = 0.00326275, Final residual = 0.000237909, No Iterations 1
ExecutionTime = 272.23 s  ClockTime = 284 s

Time = 99

DILUPBiCG:  Solving for Ux, Initial residual = 0.000806885, Final residual = 3.74956e-06, No Iterations 1
DILUPBiCG:  Solving for Uy, Initial residual = 0.00243645, Final residual = 4.06768e-06, No Iterations 1
DILUPBiCG:  Solving for Uz, Initial residual = 0.00247958, Final residual = 1.32708e-05, No Iterations 1
DICPCG:  Solving for p, Initial residual = 0.0601516, Final residual = 0.000574909, No Iterations 603
time step continuity errors : sum local = 0.00057371, global = -7.38115e-07, cumulative = -0.0002129
DILUPBiCG:  Solving for epsilon, Initial residual = 0.00441877, Final residual = 0.00031295, No Iterations 1
[...]
DILUPBiCG:  Solving for k, Initial residual = 0.000868214, Final residual = 6.01628e-05, No Iterations 1
ExecutionTime = 971.85 s  ClockTime = 1044 s

Time = 476

DILUPBiCG:  Solving for Ux, Initial residual = 0.000222558, Final residual = 1.12866e-06, No Iterations 1
DILUPBiCG:  Solving for Uy, Initial residual = 0.00132714, Final residual = 8.93378e-05, No Iterations 1
DILUPBiCG:  Solving for Uz, Initial residual = 0.00105635, Final residual = 5.29754e-06, No Iterations 1
DICPCG:  Solving for p, Initial residual = 0.0446037, Final residual = 0.000443385, No Iterations 611
time step continuity errors : sum local = 0.000587669, global = -1.16649e-07, cumulative = 0.000657355
DILUPBiCG:  Solving for epsilon, Initial residual = 0.000818919, Final residual = 5.82351e-05, No Iterations 1
DILUPBiCG:  Solving for k, Initial residual = 0.000867075, Final residual = 6.0017e-05, No Iterations 1
ExecutionTime = 974.83 s  ClockTime = 1047 s

Time = 477

DILUPBiCG:  Solving for Ux, Initial residual = 0.000221956, Final residual = 8.3902e-06, No Iterations 1
DILUPBiCG:  Solving for Uy, Initial residual = 0.00160401, Final residual = 9.02619e-05, No Iterations 1
DILUPBiCG:  Solving for Uz, Initial residual = 0.00105532, Final residual = 5.34611e-06, No Iterations 1
DICPCG:  Solving for p, Initial residual = 0.0485509, Final residual = 0.000484619, No Iterations 22
time step continuity errors : sum local = 0.000660654, global = -3.83887e-05, cumulative = 0.000618966
DILUPBiCG:  Solving for epsilon, Initial residual = 0.000818237, Final residual = 5.83037e-05, No Iterations 1
DILUPBiCG:  Solving for k, Initial residual = 0.000866234, Final residual = 6.00284e-05, No Iterations 1
ExecutionTime = 975.73 s  ClockTime = 1048 s

Time = 478

DILUPBiCG:  Solving for Ux, Initial residual = 0.000221825, Final residual = 3.45663e-06, No Iterations 1
DILUPBiCG:  Solving for Uy, Initial residual = 0.00145199, Final residual = 0.000141872, No Iterations 1
DILUPBiCG:  Solving for Uz, Initial residual = 0.00105211, Final residual = 5.26447e-06, No Iterations 1
DICPCG:  Solving for p, Initial residual = 0.0457093, Final residual = 0.000449643, No Iterations 26
time step continuity errors : sum local = 0.000614097, global = 1.0985e-05, cumulative = 0.000629951
DILUPBiCG:  Solving for epsilon, Initial residual = 0.000817479, Final residual = 5.83389e-05, No Iterations 1
DILUPBiCG:  Solving for k, Initial residual = 0.000865357, Final residual = 5.9875e-05, No Iterations 1
ExecutionTime = 976.66 s  ClockTime = 1049 s

Time = 479

DILUPBiCG:  Solving for Ux, Initial residual = 0.000221448, Final residual = 7.34695e-06, No Iterations 1
DILUPBiCG:  Solving for Uy, Initial residual = 0.00152445, Final residual = 6.28202e-05, No Iterations 1
DILUPBiCG:  Solving for Uz, Initial residual = 0.00105036, Final residual = 5.35432e-06, No Iterations 1
DICPCG:  Solving for p, Initial residual = 0.0462237, Final residual = 0.000449337, No Iterations 29
time step continuity errors : sum local = 0.000613496, global = 5.80941e-05, cumulative = 0.000688045
DILUPBiCG:  Solving for epsilon, Initial residual = 0.000817081, Final residual = 5.88005e-05, No Iterations 1
DILUPBiCG:  Solving for k, Initial residual = 0.000864388, Final residual = 5.99013e-05, No Iterations 1
ExecutionTime = 977.62 s  ClockTime = 1050 s

Time = 480

DILUPBiCG:  Solving for Ux, Initial residual = 0.00022124, Final residual = 1.14298e-06, No Iterations 1
DILUPBiCG:  Solving for Uy, Initial residual = 0.00146263, Final residual = 9.23083e-05, No Iterations 1
DILUPBiCG:  Solving for Uz, Initial residual = 0.00104734, Final residual = 5.25017e-06, No Iterations 1
DICPCG:  Solving for p, Initial residual = 0.0451788, Final residual = 0.00044258, No Iterations 40
time step continuity errors : sum local = 0.000606792, global = 0.000107591, cumulative = 0.000795636
DILUPBiCG:  Solving for epsilon, Initial residual = 0.000816289, Final residual = 5.85496e-05, No Iterations 1
DILUPBiCG:  Solving for k, Initial residual = 0.00086349, Final residual = 5.97206e-05, No Iterations 1
ExecutionTime = 978.59 s  ClockTime = 1051 s

Time = 481

DILUPBiCG:  Solving for Ux, Initial residual = 0.000220847, Final residual = 6.67359e-06, No Iterations 1
DILUPBiCG:  Solving for Uy, Initial residual = 0.00147548, Final residual = 6.94295e-05, No Iterations 1
DILUPBiCG:  Solving for Uz, Initial residual = 0.0010455, Final residual = 5.30474e-06, No Iterations 1
DICPCG:  Solving for p, Initial residual = 0.0454297, Final residual = 0.000444499, No Iterations 443
time step continuity errors : sum local = 0.000607718, global = 6.35154e-06, cumulative = 0.000801988
DILUPBiCG:  Solving for epsilon, Initial residual = 0.000815981, Final residual = 5.98684e-05, No Iterations 1
DILUPBiCG:  Solving for k, Initial residual = 0.0008628, Final residual = 5.97724e-05, No Iterations 1
ExecutionTime = 980.97 s  ClockTime = 1054 s

Time = 482

DILUPBiCG:  Solving for Ux, Initial residual = 0.000220705, Final residual = 9.00203e-06, No Iterations 1
DILUPBiCG:  Solving for Uy, Initial residual = 0.00160267, Final residual = 0.000141871, No Iterations 1
DILUPBiCG:  Solving for Uz, Initial residual = 0.00104393, Final residual = 5.21923e-06, No Iterations 1
DICPCG:  Solving for p, Initial residual = 0.0460798, Final residual = 0.000453369, No Iterations 31
time step continuity errors : sum local = 0.000603101, global = 8.40973e-05, cumulative = 0.000886085
DILUPBiCG:  Solving for epsilon, Initial residual = 0.000815281, Final residual = 5.91118e-05, No Iterations 1
DILUPBiCG:  Solving for k, Initial residual = 0.000861654, Final residual = 5.96023e-05, No Iterations 1
ExecutionTime = 981.89 s  ClockTime = 1055 s

Time = 483

DILUPBiCG:  Solving for Ux, Initial residual = 0.000219953, Final residual = 9.05308e-06, No Iterations 1
DILUPBiCG:  Solving for Uy, Initial residual = 0.00154182, Final residual = 6.48451e-05, No Iterations 1
DILUPBiCG:  Solving for Uz, Initial residual = 0.00104514, Final residual = 5.34826e-06, No Iterations 1
DICPCG:  Solving for p, Initial residual = 0.0442688, Final residual = 0.000442141, No Iterations 31
time step continuity errors : sum local = 0.000586421, global = 6.25545e-05, cumulative = 0.00094864
DILUPBiCG:  Solving for epsilon, Initial residual = 0.000814675, Final residual = 6.12543e-05, No Iterations 1
DILUPBiCG:  Solving for k, Initial residual = 0.000861157, Final residual = 5.96479e-05, No Iterations 1
ExecutionTime = 982.82 s  ClockTime = 1055 s

Time = 484

DILUPBiCG:  Solving for Ux, Initial residual = 0.000219643, Final residual = 1.06883e-06, No Iterations 1
DILUPBiCG:  Solving for Uy, Initial residual = 0.00155927, Final residual = 0.000111611, No Iterations 1
DILUPBiCG:  Solving for Uz, Initial residual = 0.00104347, Final residual = 5.20782e-06, No Iterations 1
DICPCG:  Solving for p, Initial residual = 0.0455369, Final residual = 0.000412007, No Iterations 41
time step continuity errors : sum local = 0.000548973, global = 4.34214e-05, cumulative = 0.000992061
DILUPBiCG:  Solving for epsilon, Initial residual = 0.000814172, Final residual = 6.08938e-05, No Iterations 1
DILUPBiCG:  Solving for k, Initial residual = 0.000860053, Final residual = 5.94707e-05, No Iterations 1
ExecutionTime = 983.79 s  ClockTime = 1056 s

Time = 485

DILUPBiCG:  Solving for Ux, Initial residual = 0.000219388, Final residual = 8.76015e-06, No Iterations 1
DILUPBiCG:  Solving for Uy, Initial residual = 0.0015056, Final residual = 7.63665e-05, No Iterations 1
DILUPBiCG:  Solving for Uz, Initial residual = 0.00104226, Final residual = 5.29372e-06, No Iterations 1
DICPCG:  Solving for p, Initial residual = 0.0461668, Final residual = 0.000455506, No Iterations 41
time step continuity errors : sum local = 0.000604407, global = 2.09062e-05, cumulative = 0.00101297
DILUPBiCG:  Solving for epsilon, Initial residual = 0.000813425, Final residual = 6.49701e-05, No Iterations 1
DILUPBiCG:  Solving for k, Initial residual = 0.000859615, Final residual = 5.95518e-05, No Iterations 1
ExecutionTime = 984.75 s  ClockTime = 1057 s

Time = 486

DILUPBiCG:  Solving for Ux, Initial residual = 0.000219351, Final residual = 1.64815e-05, No Iterations 1
DILUPBiCG:  Solving for Uy, Initial residual = 0.0014416, Final residual = 0.000117206, No Iterations 1
DILUPBiCG:  Solving for Uz, Initial residual = 0.00103933, Final residual = 5.18064e-06, No Iterations 1
DICPCG:  Solving for p, Initial residual = 0.0459867, Final residual = 0.000434933, No Iterations 438
time step continuity errors : sum local = 0.000577211, global = 1.46846e-05, cumulative = 0.00102765
DILUPBiCG:  Solving for epsilon, Initial residual = 0.000813124, Final residual = 6.97789e-05, No Iterations 1
DILUPBiCG:  Solving for k, Initial residual = 0.000858611, Final residual = 5.93719e-05, No Iterations 1
ExecutionTime = 987.09 s  ClockTime = 1060 s

Time = 487

DILUPBiCG:  Solving for Ux, Initial residual = 0.000218608, Final residual = 7.09538e-06, No Iterations 2
DILUPBiCG:  Solving for Uy, Initial residual = 0.00148583, Final residual = 7.36823e-05, No Iterations 1
DILUPBiCG:  Solving for Uz, Initial residual = 0.00104198, Final residual = 5.32971e-06, No Iterations 1
DICPCG:  Solving for p, Initial residual = 0.0460501, Final residual = 0.00045827, No Iterations 29
time step continuity errors : sum local = 0.000606515, global = -7.9223e-06, cumulative = 0.00101973
DILUPBiCG:  Solving for epsilon, Initial residual = 0.000812594, Final residual = 7.4198e-05, No Iterations 2
DILUPBiCG:  Solving for k, Initial residual = 0.000857848, Final residual = 5.94155e-05, No Iterations 1
ExecutionTime = 988.03 s  ClockTime = 1061 s

Time = 488

DILUPBiCG:  Solving for Ux, Initial residual = 0.000218278, Final residual = 1.16313e-06, No Iterations 1
DILUPBiCG:  Solving for Uy, Initial residual = 0.00144998, Final residual = 9.21133e-05, No Iterations 1
DILUPBiCG:  Solving for Uz, Initial residual = 0.00104098, Final residual = 5.21661e-06, No Iterations 1
DICPCG:  Solving for p, Initial residual = 0.0452744, Final residual = 0.000440115, No Iterations 38
time step continuity errors : sum local = 0.000582953, global = -2.17342e-05, cumulative = 0.000997996
DILUPBiCG:  Solving for epsilon, Initial residual = 0.000811142, Final residual = 6.21261e-05, No Iterations 1
DILUPBiCG:  Solving for k, Initial residual = 0.000856644, Final residual = 5.92368e-05, No Iterations 1
ExecutionTime = 988.98 s  ClockTime = 1062 s

Time = 489

DILUPBiCG:  Solving for Ux, Initial residual = 0.000218005, Final residual = 6.90705e-06, No Iterations 1
DILUPBiCG:  Solving for Uy, Initial residual = 0.00139498, Final residual = 8.29362e-05, No Iterations 1
DILUPBiCG:  Solving for Uz, Initial residual = 0.00103997, Final residual = 5.30489e-06, No Iterations 1
DICPCG:  Solving for p, Initial residual = 0.046755, Final residual = 0.000423071, No Iterations 40
time step continuity errors : sum local = 0.00055962, global = -3.52531e-05, cumulative = 0.000962742
DILUPBiCG:  Solving for epsilon, Initial residual = 0.00081032, Final residual = 2.48942e-07, No Iterations 3
DILUPBiCG:  Solving for k, Initial residual = 0.000855599, Final residual = 5.92049e-05, No Iterations 1
ExecutionTime = 989.98 s  ClockTime = 1063 s

Time = 490

DILUPBiCG:  Solving for Ux, Initial residual = 0.000217971, Final residual = 8.19977e-06, No Iterations 1
DILUPBiCG:  Solving for Uy, Initial residual = 0.0014139, Final residual = 0.00011375, No Iterations 1
DILUPBiCG:  Solving for Uz, Initial residual = 0.00103656, Final residual = 5.17957e-06, No Iterations 1
DICPCG:  Solving for p, Initial residual = 0.0440572, Final residual = 0.000408124, No Iterations 41
time step continuity errors : sum local = 0.000540426, global = -4.92511e-05, cumulative = 0.000913491
DILUPBiCG:  Solving for epsilon, Initial residual = 0.00080938, Final residual = 7.99476e-05, No Iterations 1
DILUPBiCG:  Solving for k, Initial residual = 0.000854723, Final residual = 5.90822e-05, No Iterations 1
ExecutionTime = 990.93 s  ClockTime = 1064 s

Time = 491

DILUPBiCG:  Solving for Ux, Initial residual = 0.00021749, Final residual = 6.70366e-06, No Iterations 1
DILUPBiCG:  Solving for Uy, Initial residual = 0.00147935, Final residual = 7.16765e-05, No Iterations 1
DILUPBiCG:  Solving for Uz, Initial residual = 0.00103641, Final residual = 5.32939e-06, No Iterations 1
DICPCG:  Solving for p, Initial residual = 0.0457876, Final residual = 0.000455478, No Iterations 24
time step continuity errors : sum local = 0.000603297, global = -6.25189e-05, cumulative = 0.000850972
DILUPBiCG:  Solving for epsilon, Initial residual = 0.000808995, Final residual = 2.41952e-07, No Iterations 3
DILUPBiCG:  Solving for k, Initial residual = 0.000853898, Final residual = 5.903e-05, No Iterations 1
ExecutionTime = 991.84 s  ClockTime = 1065 s

Time = 492

DILUPBiCG:  Solving for Ux, Initial residual = 0.000217195, Final residual = 1.22078e-06, No Iterations 1
DILUPBiCG:  Solving for Uy, Initial residual = 0.00145531, Final residual = 0.000117665, No Iterations 1
DILUPBiCG:  Solving for Uz, Initial residual = 0.00103435, Final residual = 5.18326e-06, No Iterations 1
DICPCG:  Solving for p, Initial residual = 0.045843, Final residual = 0.000455219, No Iterations 342
time step continuity errors : sum local = 0.00060372, global = -5.71294e-05, cumulative = 0.000793843
DILUPBiCG:  Solving for epsilon, Initial residual = 0.000808124, Final residual = 2.66702e-07, No Iterations 3
DILUPBiCG:  Solving for k, Initial residual = 0.000852994, Final residual = 5.89445e-05, No Iterations 1
ExecutionTime = 993.87 s  ClockTime = 1067 s

Time = 493

DILUPBiCG:  Solving for Ux, Initial residual = 0.000216528, Final residual = 5.26242e-06, No Iterations 1
DILUPBiCG:  Solving for Uy, Initial residual = 0.00153475, Final residual = 7.69526e-05, No Iterations 1
DILUPBiCG:  Solving for Uz, Initial residual = 0.00103257, Final residual = 5.23983e-06, No Iterations 1
DICPCG:  Solving for p, Initial residual = 0.0460029, Final residual = 0.000459415, No Iterations 23
time step continuity errors : sum local = 0.000615417, global = -7.36359e-05, cumulative = 0.000720207
DILUPBiCG:  Solving for epsilon, Initial residual = 0.000807128, Final residual = 6.75784e-05, No Iterations 1
DILUPBiCG:  Solving for k, Initial residual = 0.000851765, Final residual = 5.88565e-05, No Iterations 1
ExecutionTime = 994.79 s  ClockTime = 1068 s

Time = 494

DILUPBiCG:  Solving for Ux, Initial residual = 0.00021624, Final residual = 2.90893e-07, No Iterations 2
DILUPBiCG:  Solving for Uy, Initial residual = 0.00145661, Final residual = 1.08818e-05, No Iterations 2
DILUPBiCG:  Solving for Uz, Initial residual = 0.00103062, Final residual = 5.14289e-06, No Iterations 1
DICPCG:  Solving for p, Initial residual = 0.0444122, Final residual = 0.000432727, No Iterations 25
time step continuity errors : sum local = 0.000580253, global = -7.40064e-05, cumulative = 0.000646201
DILUPBiCG:  Solving for epsilon, Initial residual = 0.000805928, Final residual = 2.46705e-07, No Iterations 3
DILUPBiCG:  Solving for k, Initial residual = 0.000850751, Final residual = 5.87771e-05, No Iterations 1
ExecutionTime = 995.73 s  ClockTime = 1069 s

Time = 495

DILUPBiCG:  Solving for Ux, Initial residual = 0.000215908, Final residual = 7.46281e-06, No Iterations 1
DILUPBiCG:  Solving for Uy, Initial residual = 0.00144088, Final residual = 5.48618e-05, No Iterations 1
DILUPBiCG:  Solving for Uz, Initial residual = 0.00102999, Final residual = 5.25994e-06, No Iterations 1
DICPCG:  Solving for p, Initial residual = 0.0442928, Final residual = 0.000427537, No Iterations 31
time step continuity errors : sum local = 0.00057438, global = -7.60599e-05, cumulative = 0.000570141
DILUPBiCG:  Solving for epsilon, Initial residual = 0.000804956, Final residual = 6.2412e-05, No Iterations 1
DILUPBiCG:  Solving for k, Initial residual = 0.000849711, Final residual = 5.87511e-05, No Iterations 1
ExecutionTime = 996.65 s  ClockTime = 1070 s

Time = 496

DILUPBiCG:  Solving for Ux, Initial residual = 0.000215812, Final residual = 1.06022e-06, No Iterations 1
DILUPBiCG:  Solving for Uy, Initial residual = 0.00151356, Final residual = 1.21681e-05, No Iterations 2
DILUPBiCG:  Solving for Uz, Initial residual = 0.00102853, Final residual = 5.1376e-06, No Iterations 1
DICPCG:  Solving for p, Initial residual = 0.0441379, Final residual = 0.000432921, No Iterations 441
time step continuity errors : sum local = 0.000582701, global = -6.22991e-05, cumulative = 0.000507842
DILUPBiCG:  Solving for epsilon, Initial residual = 0.000803863, Final residual = 7.01188e-05, No Iterations 2
DILUPBiCG:  Solving for k, Initial residual = 0.000848833, Final residual = 5.86614e-05, No Iterations 1
ExecutionTime = 999.02 s  ClockTime = 1072 s

Time = 497

DILUPBiCG:  Solving for Ux, Initial residual = 0.000215649, Final residual = 6.82776e-06, No Iterations 1
DILUPBiCG:  Solving for Uy, Initial residual = 0.00168934, Final residual = 2.03559e-05, No Iterations 1
DILUPBiCG:  Solving for Uz, Initial residual = 0.00102842, Final residual = 5.21272e-06, No Iterations 1
DICPCG:  Solving for p, Initial residual = 0.0472958, Final residual = 0.000426844, No Iterations 18
time step continuity errors : sum local = 0.000575041, global = -6.81426e-05, cumulative = 0.000439699
DILUPBiCG:  Solving for epsilon, Initial residual = 0.00080335, Final residual = 6.13103e-05, No Iterations 1
DILUPBiCG:  Solving for k, Initial residual = 0.000847959, Final residual = 5.86272e-05, No Iterations 1
ExecutionTime = 999.9 s  ClockTime = 1073 s

Time = 498

DILUPBiCG:  Solving for Ux, Initial residual = 0.000215306, Final residual = 1.4024e-05, No Iterations 1
DILUPBiCG:  Solving for Uy, Initial residual = 0.00149599, Final residual = 0.00013239, No Iterations 1
DILUPBiCG:  Solving for Uz, Initial residual = 0.00102691, Final residual = 5.12682e-06, No Iterations 1
DICPCG:  Solving for p, Initial residual = 0.0418704, Final residual = 0.000404869, No Iterations 39
time step continuity errors : sum local = 0.000543939, global = -5.97001e-05, cumulative = 0.000379999
DILUPBiCG:  Solving for epsilon, Initial residual = 0.000802421, Final residual = 6.87187e-05, No Iterations 1
DILUPBiCG:  Solving for k, Initial residual = 0.000847076, Final residual = 5.85208e-05, No Iterations 1
ExecutionTime = 1000.84 s  ClockTime = 1074 s

Time = 499

DILUPBiCG:  Solving for Ux, Initial residual = 0.000214308, Final residual = 4.13012e-06, No Iterations 2
DILUPBiCG:  Solving for Uy, Initial residual = 0.00175678, Final residual = 9.97576e-05, No Iterations 1
DILUPBiCG:  Solving for Uz, Initial residual = 0.00102923, Final residual = 5.22463e-06, No Iterations 1
DICPCG:  Solving for p, Initial residual = 0.0524707, Final residual = 0.000499308, No Iterations 28
time step continuity errors : sum local = 0.000669325, global = -5.2467e-05, cumulative = 0.000327532
DILUPBiCG:  Solving for epsilon, Initial residual = 0.000801232, Final residual = 5.77585e-05, No Iterations 1
DILUPBiCG:  Solving for k, Initial residual = 0.000845851, Final residual = 5.84471e-05, No Iterations 1
ExecutionTime = 1001.76 s  ClockTime = 1075 s

Time = 500

DILUPBiCG:  Solving for Ux, Initial residual = 0.000213912, Final residual = 1.0921e-06, No Iterations 1
DILUPBiCG:  Solving for Uy, Initial residual = 0.00195757, Final residual = 4.11229e-05, No Iterations 1
DILUPBiCG:  Solving for Uz, Initial residual = 0.00102887, Final residual = 5.17001e-06, No Iterations 1
DICPCG:  Solving for p, Initial residual = 0.059891, Final residual = 0.000596162, No Iterations 37
time step continuity errors : sum local = 0.000795001, global = -4.35582e-05, cumulative = 0.000283974
DILUPBiCG:  Solving for epsilon, Initial residual = 0.000800064, Final residual = 5.64585e-05, No Iterations 1
DILUPBiCG:  Solving for k, Initial residual = 0.000844892, Final residual = 5.83462e-05, No Iterations 1
ExecutionTime = 1003.84 s  ClockTime = 1079 s

End

